/*--------------------------------*- C++ -*----------------------------------*\
| =========                 |                                                 |
| \\      /  F ield         | OpenFOAM: The Open Source CFD Toolbox           |
|  \\    /   O peration     | Version:  2.4.0                                 |
|   \\  /    A nd           | Web:      www.OpenFOAM.org                      |
|    \\/     M anipulation  |                                                 |
\*---------------------------------------------------------------------------*/
FoamFile
{
    version     2.0;
    format      ascii;
    class       vectorAverageField;
    object      values;
}
// * * * * * * * * * * * * * * * * * * * * * * * * * * * * * * * * * * * * * //
//Data on Points

(0 0 0)

2700
(
//wedge0
(1.21541569129018  0.000000E+00 0.000000E+00)
(1.21539247386569  0.000000E+00 0.000000E+00)
(1.21536920785694  0.000000E+00 0.000000E+00)
(1.21534574758897  0.000000E+00 0.000000E+00)
(1.21532199585437  0.000000E+00 0.000000E+00)
(1.21529824416839  0.000000E+00 0.000000E+00)
(1.21527429815512  0.000000E+00 0.000000E+00)
(1.21525001215416  0.000000E+00 0.000000E+00)
(1.21522577472288  0.000000E+00 0.000000E+00)
(1.21520129444326  0.000000E+00 0.000000E+00)
(1.21517652269701  0.000000E+00 0.000000E+00)
(1.21515175095076  0.000000E+00 0.000000E+00)
(1.21512673640478  0.000000E+00 0.000000E+00)
(1.21510143034356  0.000000E+00 0.000000E+00)
(1.21507612433096  0.000000E+00 0.000000E+00)
(1.21505057547002  0.000000E+00 0.000000E+00)
(1.21502468657278  0.000000E+00 0.000000E+00)
(1.21499884629383  0.000000E+00 0.000000E+00)
(1.21497276311791  0.000000E+00 0.000000E+00)
(1.21494633995432  0.000000E+00 0.000000E+00)
(1.21491996526317  0.000000E+00 0.000000E+00)
(1.21489325048710  0.000000E+00 0.000000E+00)
(1.21486629310577  0.000000E+00 0.000000E+00)
(1.21483933572445  0.000000E+00 0.000000E+00)
(1.21481208711959  0.000000E+00 0.000000E+00)
(1.21478449818673  0.000000E+00 0.000000E+00)
(1.21475695787215  0.000000E+00 0.000000E+00)
(1.21472912584786  0.000000E+00 0.000000E+00)
(1.21470100260003  0.000000E+00 0.000000E+00)
(1.21467283073391  0.000000E+00 0.000000E+00)
(1.21464441626254  0.000000E+00 0.000000E+00)
(1.21461566146317  0.000000E+00 0.000000E+00)
(1.21458672429363  0.000000E+00 0.000000E+00)
(1.21455525619460  0.000000E+00 0.000000E+00)
(1.21452341938845  0.000000E+00 0.000000E+00)
(1.21449163578147  0.000000E+00 0.000000E+00)
(1.21445943079493  0.000000E+00 0.000000E+00)
(1.21442696297289  0.000000E+00 0.000000E+00)
(1.21439444247840  0.000000E+00 0.000000E+00)
(1.21436160594924  0.000000E+00 0.000000E+00)
(1.21432840123969  0.000000E+00 0.000000E+00)
(1.21429519653013  0.000000E+00 0.000000E+00)
(1.21426167631263  0.000000E+00 0.000000E+00)
(1.21422773471557  0.000000E+00 0.000000E+00)
(1.21419384579095  0.000000E+00 0.000000E+00)
(1.21415953601349  0.000000E+00 0.000000E+00)
(1.21412491072809  0.000000E+00 0.000000E+00)
(1.21409023277024  0.000000E+00 0.000000E+00)
(1.21405523877772  0.000000E+00 0.000000E+00)
(1.21401987660480  0.000000E+00 0.000000E+00)
(1.21398446175944  0.000000E+00 0.000000E+00)
(1.21394867873369  0.000000E+00 0.000000E+00)
(1.21391252700081  0.000000E+00 0.000000E+00)
(1.21387637579467  0.000000E+00 0.000000E+00)
(1.21383985588140  0.000000E+00 0.000000E+00)
(1.21380291458858  0.000000E+00 0.000000E+00)
(1.21376597382247  0.000000E+00 0.000000E+00)
(1.21372866487598  0.000000E+00 0.000000E+00)
(1.21369093454992  0.000000E+00 0.000000E+00)
(1.21364954370335  0.000000E+00 0.000000E+00)
(1.21360642787472  0.000000E+00 0.000000E+00)
(1.21356277616065  0.000000E+00 0.000000E+00)
(1.21351918405563  0.000000E+00 0.000000E+00)
(1.21347511507814  0.000000E+00 0.000000E+00)
(1.21343056982427  0.000000E+00 0.000000E+00)
(1.21338602457039  0.000000E+00 0.000000E+00)
(1.21334100304014  0.000000E+00 0.000000E+00)
(1.21329544562444  0.000000E+00 0.000000E+00)
(1.21324994781780  0.000000E+00 0.000000E+00)
(1.21320397313869  0.000000E+00 0.000000E+00)
(1.21315746317022  0.000000E+00 0.000000E+00)
(1.21311095260566  0.000000E+00 0.000000E+00)
(1.21306396576473  0.000000E+00 0.000000E+00)
(1.21301650264740  0.000000E+00 0.000000E+00)
(1.21296903953008  0.000000E+00 0.000000E+00)
(1.21292104052732  0.000000E+00 0.000000E+00)
(1.21287250504302  0.000000E+00 0.000000E+00)
(1.21282397015481  0.000000E+00 0.000000E+00)
(1.21277495839413  0.000000E+00 0.000000E+00)
(1.21272541074801  0.000000E+00 0.000000E+00)
(1.21267586310188  0.000000E+00 0.000000E+00)
(1.21262130788653  0.000000E+00 0.000000E+00)
(1.21256246352432  0.000000E+00 0.000000E+00)
(1.21250361916211  0.000000E+00 0.000000E+00)
(1.21244408254589  0.000000E+00 0.000000E+00)
(1.21238399226506  0.000000E+00 0.000000E+00)
(1.21232390129128  0.000000E+00 0.000000E+00)
(1.21226311875644  0.000000E+00 0.000000E+00)
(1.21220171256935  0.000000E+00 0.000000E+00)
(1.21214030707520  0.000000E+00 0.000000E+00)
(1.21207820863411  0.000000E+00 0.000000E+00)
(1.21201548723370  0.000000E+00 0.000000E+00)
(1.21195276652624  0.000000E+00 0.000000E+00)
(1.21188935287182  0.000000E+00 0.000000E+00)
(1.21182531625810  0.000000E+00 0.000000E+00)
(1.21176121034968  0.000000E+00 0.000000E+00)
(1.21169648148195  0.000000E+00 0.000000E+00)
(1.21163099106553  0.000000E+00 0.000000E+00)
(1.21156550064910  0.000000E+00 0.000000E+00)
(1.21149938727336  0.000000E+00 0.000000E+00)
(1.21142813890685  0.000000E+00 0.000000E+00)
(1.21135005279261  0.000000E+00 0.000000E+00)
(1.21127115837202  0.000000E+00 0.000000E+00)
(1.21119137473356  0.000000E+00 0.000000E+00)
(1.21111159109509  0.000000E+00 0.000000E+00)
(1.21103099834117  0.000000E+00 0.000000E+00)
(1.21094951717848  0.000000E+00 0.000000E+00)
(1.21086803601579  0.000000E+00 0.000000E+00)
(1.21078566563521  0.000000E+00 0.000000E+00)
(1.21070248694830  0.000000E+00 0.000000E+00)
(1.21061922734984  0.000000E+00 0.000000E+00)
(1.21053507853350  0.000000E+00 0.000000E+00)
(1.21045012141082  0.000000E+00 0.000000E+00)
(1.21036508418571  0.000000E+00 0.000000E+00)
(1.21027915693360  0.000000E+00 0.000000E+00)
(1.21019225955206  0.000000E+00 0.000000E+00)
(1.21010544308206  0.000000E+00 0.000000E+00)
(1.21001038601818  0.000000E+00 0.000000E+00)
(1.20990758191420  0.000000E+00 0.000000E+00)
(1.20980487152750  0.000000E+00 0.000000E+00)
(1.20970094469054  0.000000E+00 0.000000E+00)
(1.20959598790072  0.000000E+00 0.000000E+00)
(1.20949103111089  0.000000E+00 0.000000E+00)
(1.20938494971374  0.000000E+00 0.000000E+00)
(1.20927765186634  0.000000E+00 0.000000E+00)
(1.20917044773621  0.000000E+00 0.000000E+00)
(1.20906202715583  0.000000E+00 0.000000E+00)
(1.20895257568541  0.000000E+00 0.000000E+00)
(1.20884303049771  0.000000E+00 0.000000E+00)
(1.20873227260844  0.000000E+00 0.000000E+00)
(1.20862038355165  0.000000E+00 0.000000E+00)
(1.20850849449486  0.000000E+00 0.000000E+00)
(1.20838792137648  0.000000E+00 0.000000E+00)
(1.20825728765979  0.000000E+00 0.000000E+00)
(1.20812666465166  0.000000E+00 0.000000E+00)
(1.20799464953080  0.000000E+00 0.000000E+00)
(1.20786124229721  0.000000E+00 0.000000E+00)
(1.20772783506363  0.000000E+00 0.000000E+00)
(1.20759292863172  0.000000E+00 0.000000E+00)
(1.20745663008708  0.000000E+00 0.000000E+00)
(1.20732033154244  0.000000E+00 0.000000E+00)
(1.20718253379948  0.000000E+00 0.000000E+00)
(1.20704334394379  0.000000E+00 0.000000E+00)
(1.20690416479666  0.000000E+00 0.000000E+00)
(1.20676336865706  0.000000E+00 0.000000E+00)
(1.20662119111328  0.000000E+00 0.000000E+00)
(1.20646348920943  0.000000E+00 0.000000E+00)
(1.20630173172588  0.000000E+00 0.000000E+00)
(1.20613817800855  0.000000E+00 0.000000E+00)
(1.20597462429121  0.000000E+00 0.000000E+00)
(1.20580926228482  0.000000E+00 0.000000E+00)
(1.20564222459724  0.000000E+00 0.000000E+00)
(1.20547505430180  0.000000E+00 0.000000E+00)
(1.20530619626990  0.000000E+00 0.000000E+00)
(1.20513554200422  0.000000E+00 0.000000E+00)
(1.20496487568327  0.000000E+00 0.000000E+00)
(1.20479229257592  0.000000E+00 0.000000E+00)
(1.20461802173212  0.000000E+00 0.000000E+00)
(1.20443487646692  0.000000E+00 0.000000E+00)
(1.20423927300936  0.000000E+00 0.000000E+00)
(1.20404152829884  0.000000E+00 0.000000E+00)
(1.20384378358831  0.000000E+00 0.000000E+00)
(1.20364404483598  0.000000E+00 0.000000E+00)
(1.20344201761954  0.000000E+00 0.000000E+00)
(1.20323999040311  0.000000E+00 0.000000E+00)
(1.20303596914485  0.000000E+00 0.000000E+00)
(1.20282953897703  0.000000E+00 0.000000E+00)
(1.20262322925468  0.000000E+00 0.000000E+00)
(1.20241465783390  0.000000E+00 0.000000E+00)
(1.20220281778349  0.000000E+00 0.000000E+00)
(1.20197172280024  0.000000E+00 0.000000E+00)
(1.20173798589276  0.000000E+00 0.000000E+00)
(1.20150191528554  0.000000E+00 0.000000E+00)
(1.20126583000097  0.000000E+00 0.000000E+00)
(1.20102710279217  0.000000E+00 0.000000E+00)
(1.20078589511006  0.000000E+00 0.000000E+00)
(1.20054468742796  0.000000E+00 0.000000E+00)
(1.20030098459519  0.000000E+00 0.000000E+00)
(1.20005449306463  0.000000E+00 0.000000E+00)
(1.19980814830763  0.000000E+00 0.000000E+00)
(1.19954838597845  0.000000E+00 0.000000E+00)
(1.19927505085757  0.000000E+00 0.000000E+00)
(1.19900187507861  0.000000E+00 0.000000E+00)
(1.19872568773745  0.000000E+00 0.000000E+00)
(1.19844647289992  0.000000E+00 0.000000E+00)
(1.19816740147010  0.000000E+00 0.000000E+00)
(1.19788515913618  0.000000E+00 0.000000E+00)
(1.19760004864779  0.000000E+00 0.000000E+00)
(1.19731493815940  0.000000E+00 0.000000E+00)
(1.19702664083271  0.000000E+00 0.000000E+00)
(1.19671997588583  0.000000E+00 0.000000E+00)
(1.19640629781674  0.000000E+00 0.000000E+00)
(1.19608920554124  0.000000E+00 0.000000E+00)
(1.19576885347069  0.000000E+00 0.000000E+00)
(1.19544848424331  0.000000E+00 0.000000E+00)
(1.19512470080953  0.000000E+00 0.000000E+00)
(1.19479733160118  0.000000E+00 0.000000E+00)
(1.19447011680418  0.000000E+00 0.000000E+00)
(1.19413929907579  0.000000E+00 0.000000E+00)
(1.19379296607036  0.000000E+00 0.000000E+00)
(1.19343535867056  0.000000E+00 0.000000E+00)
(1.19307410034359  0.000000E+00 0.000000E+00)
(1.19270880581572  0.000000E+00 0.000000E+00)
(1.19234369475152  0.000000E+00 0.000000E+00)
(1.19197454748642  0.000000E+00 0.000000E+00)
(1.19160138236679  0.000000E+00 0.000000E+00)
(1.19122838236447  0.000000E+00 0.000000E+00)
(1.19085134616125  0.000000E+00 0.000000E+00)
(1.19044851769111  0.000000E+00 0.000000E+00)
(1.19004329567498  0.000000E+00 0.000000E+00)
(1.18963397853742  0.000000E+00 0.000000E+00)
(1.18922017626685  0.000000E+00 0.000000E+00)
(1.18880639349687  0.000000E+00 0.000000E+00)
(1.18838810609331  0.000000E+00 0.000000E+00)
(1.18796554806311  0.000000E+00 0.000000E+00)
(1.18754277552655  0.000000E+00 0.000000E+00)
(1.18709612777614  0.000000E+00 0.000000E+00)
(1.18663966135953  0.000000E+00 0.000000E+00)
(1.18618298876088  0.000000E+00 0.000000E+00)
(1.18572159459353  0.000000E+00 0.000000E+00)
(1.18525523143903  0.000000E+00 0.000000E+00)
(1.18478888890274  0.000000E+00 0.000000E+00)
(1.18431757737931  0.000000E+00 0.000000E+00)
(1.18383812315605  0.000000E+00 0.000000E+00)
(1.18333685568923  0.000000E+00 0.000000E+00)
(1.18283016512794  0.000000E+00 0.000000E+00)
(1.18231826839598  0.000000E+00 0.000000E+00)
(1.18180617643262  0.000000E+00 0.000000E+00)
(1.18128863968242  0.000000E+00 0.000000E+00)
(1.18076570153014  0.000000E+00 0.000000E+00)
(1.18024276337787  0.000000E+00 0.000000E+00)
(1.17969284955804  0.000000E+00 0.000000E+00)
(1.17913326447468  0.000000E+00 0.000000E+00)
(1.17857347488951  0.000000E+00 0.000000E+00)
(1.17800798197646  0.000000E+00 0.000000E+00)
(1.17743614950770  0.000000E+00 0.000000E+00)
(1.17686454426316  0.000000E+00 0.000000E+00)
(1.17628657674050  0.000000E+00 0.000000E+00)
(1.17567940012180  0.000000E+00 0.000000E+00)
(1.17507001133215  0.000000E+00 0.000000E+00)
(1.17445424560388  0.000000E+00 0.000000E+00)
(1.17383184216997  0.000000E+00 0.000000E+00)
(1.17320943873605  0.000000E+00 0.000000E+00)
(1.17258016053559  0.000000E+00 0.000000E+00)
(1.17193616825295  0.000000E+00 0.000000E+00)
(1.17127499393094  0.000000E+00 0.000000E+00)
(1.17060689334943  0.000000E+00 0.000000E+00)
(1.16993144748207  0.000000E+00 0.000000E+00)
(1.16925622345220  0.000000E+00 0.000000E+00)
(1.16857360483924  0.000000E+00 0.000000E+00)
(1.16788310554753  0.000000E+00 0.000000E+00)
(1.16716765079169  0.000000E+00 0.000000E+00)
(1.16644480993796  0.000000E+00 0.000000E+00)
(1.16571404628027  0.000000E+00 0.000000E+00)
(1.16498330818000  0.000000E+00 0.000000E+00)
(1.16424487729266  0.000000E+00 0.000000E+00)
(1.16349854915878  0.000000E+00 0.000000E+00)
(1.16272626777469  0.000000E+00 0.000000E+00)
(1.16194603265880  0.000000E+00 0.000000E+00)
(1.16115707303802  0.000000E+00 0.000000E+00)
(1.16036840423408  0.000000E+00 0.000000E+00)
(1.15957127530418  0.000000E+00 0.000000E+00)
(1.15875976299871  0.000000E+00 0.000000E+00)
(1.15792800117205  0.000000E+00 0.000000E+00)
(1.15708723139020  0.000000E+00 0.000000E+00)
(1.15623748094998  0.000000E+00 0.000000E+00)
(1.15538743024460  0.000000E+00 0.000000E+00)
(1.15452867184918  0.000000E+00 0.000000E+00)
(1.15364315350543  0.000000E+00 0.000000E+00)
(1.15274829119615  0.000000E+00 0.000000E+00)
(1.15184417363066  0.000000E+00 0.000000E+00)
(1.15093018191646  0.000000E+00 0.000000E+00)
(1.15001621833375  0.000000E+00 0.000000E+00)
(1.14908784544020  0.000000E+00 0.000000E+00)
(1.14813428369637  0.000000E+00 0.000000E+00)
(1.14718101135790  0.000000E+00 0.000000E+00)
(1.14623384547268  0.000000E+00 0.000000E+00)
(1.14529330697037  0.000000E+00 0.000000E+00)
(1.14435136092245  0.000000E+00 0.000000E+00)
(1.14339305000684  0.000000E+00 0.000000E+00)
(1.14244246524827  0.000000E+00 0.000000E+00)
(1.14149185077371  0.000000E+00 0.000000E+00)
(1.14054866529630  0.000000E+00 0.000000E+00)
(1.13961290881602  0.000000E+00 0.000000E+00)
(1.13866250489365  0.000000E+00 0.000000E+00)
(1.13771074842642  0.000000E+00 0.000000E+00)
(1.13676691310776  0.000000E+00 0.000000E+00)
(1.13582304732315  0.000000E+00 0.000000E+00)
(1.13488649336799  0.000000E+00 0.000000E+00)
(1.13395585183522  0.000000E+00 0.000000E+00)
(1.13300459748816  0.000000E+00 0.000000E+00)
(1.13206079943277  0.000000E+00 0.000000E+00)
(1.13112452006477  0.000000E+00 0.000000E+00)
(1.13018824069678  0.000000E+00 0.000000E+00)
(1.12925941762045  0.000000E+00 0.000000E+00)
(1.12833071935755  0.000000E+00 0.000000E+00)
(1.12738773240395  0.000000E+00 0.000000E+00)
(1.12645208958550  0.000000E+00 0.000000E+00)
(1.12552379090221  0.000000E+00 0.000000E+00)
(1.12459581152913  0.000000E+00 0.000000E+00)
(1.12367482504997  0.000000E+00 0.000000E+00)
(1.12275285890442  0.000000E+00 0.000000E+00)
(1.12181825251671  0.000000E+00 0.000000E+00)
(1.12089086732999  0.000000E+00 0.000000E+00)
(1.11997093207007  0.000000E+00 0.000000E+00)
(1.11905102948527  0.000000E+00 0.000000E+00)
(1.11813831542633  0.000000E+00 0.000000E+00)
(1.11722689819030  0.000000E+00 0.000000E+00)
(1.11630028439376  0.000000E+00 0.000000E+00)
(1.11538132745714  0.000000E+00 0.000000E+00)
(1.11446939209515  0.000000E+00 0.000000E+00)
(1.11355779109385  0.000000E+00 0.000000E+00)
(1.11265317823109  0.000000E+00 0.000000E+00)
(1.11175595473971  0.000000E+00 0.000000E+00)
(1.11083832929367  0.000000E+00 0.000000E+00)
(1.10992733838161  0.000000E+00 0.000000E+00)
(1.10902353274998  0.000000E+00 0.000000E+00)
(1.10811972711834  0.000000E+00 0.000000E+00)
(1.10722344892336  0.000000E+00 0.000000E+00)
(1.10633401385259  0.000000E+00 0.000000E+00)
(1.10543528612144  0.000000E+00 0.000000E+00)
(1.10453197539202  0.000000E+00 0.000000E+00)
(1.10363570590422  0.000000E+00 0.000000E+00)
(1.10273975169590  0.000000E+00 0.000000E+00)
(1.10185080369816  0.000000E+00 0.000000E+00)
(1.10096886191099  0.000000E+00 0.000000E+00)
(1.10008692012382  0.000000E+00 0.000000E+00)
(1.09919703238214  0.000000E+00 0.000000E+00)
(1.09830682859292  0.000000E+00 0.000000E+00)
(1.09741658887362  0.000000E+00 0.000000E+00)
(1.09653321180057  0.000000E+00 0.000000E+00)
(1.09565734411532  0.000000E+00 0.000000E+00)
(1.09478111712921  0.000000E+00 0.000000E+00)
(1.09391171685928  0.000000E+00 0.000000E+00)
(1.09303374755776  0.000000E+00 0.000000E+00)
(1.09214684357054  0.000000E+00 0.000000E+00)
(1.09126696178432  0.000000E+00 0.000000E+00)
(1.09039406524015  0.000000E+00 0.000000E+00)
(1.08952120565494  0.000000E+00 0.000000E+00)
(1.08865533131178  0.000000E+00 0.000000E+00)
(1.08779647916963  0.000000E+00 0.000000E+00)
(1.08692819660124  0.000000E+00 0.000000E+00)
(1.08604938380587  0.000000E+00 0.000000E+00)
(1.08517743137582  0.000000E+00 0.000000E+00)
(1.08430586007716  0.000000E+00 0.000000E+00)
(1.08344072989927  0.000000E+00 0.000000E+00)
(1.08258287933122  0.000000E+00 0.000000E+00)
(1.08172460951863  0.000000E+00 0.000000E+00)
(1.08087361931589  0.000000E+00 0.000000E+00)
(1.08000967071190  0.000000E+00 0.000000E+00)
(1.07913899233050  0.000000E+00 0.000000E+00)
(1.07827538656559  0.000000E+00 0.000000E+00)
(1.07741881412484  0.000000E+00 0.000000E+00)
(1.07656188805327  0.000000E+00 0.000000E+00)
(1.07571203459819  0.000000E+00 0.000000E+00)
(1.07486882154413  0.000000E+00 0.000000E+00)
(1.07402564778239  0.000000E+00 0.000000E+00)
(1.07317089242122  0.000000E+00 0.000000E+00)
(1.07231919890857  0.000000E+00 0.000000E+00)
(1.07146750539592  0.000000E+00 0.000000E+00)
(1.07062266737082  0.000000E+00 0.000000E+00)
(1.06978428156930  0.000000E+00 0.000000E+00)
(1.06894629903176  0.000000E+00 0.000000E+00)
(1.06811472839140  0.000000E+00 0.000000E+00)
(1.06729005356499  0.000000E+00 0.000000E+00)
(1.06645637204855  0.000000E+00 0.000000E+00)
(1.06562303826862  0.000000E+00 0.000000E+00)
(1.06479623480269  0.000000E+00 0.000000E+00)
(1.06396943133676  0.000000E+00 0.000000E+00)
(1.06314919925598  0.000000E+00 0.000000E+00)
(1.06233553856036  0.000000E+00 0.000000E+00)
(1.06152187786474  0.000000E+00 0.000000E+00)
(1.06071437784270  0.000000E+00 0.000000E+00)
(1.05991381884623  0.000000E+00 0.000000E+00)
(1.05910471863184  0.000000E+00 0.000000E+00)
(1.05830148125541  0.000000E+00 0.000000E+00)
(1.05750447310069  0.000000E+00 0.000000E+00)
(1.05670750647412  0.000000E+00 0.000000E+00)
(1.05591714282258  0.000000E+00 0.000000E+00)
(1.05513259311130  0.000000E+00 0.000000E+00)
(1.05434845868147  0.000000E+00 0.000000E+00)
(1.05357055347335  0.000000E+00 0.000000E+00)
(1.05279842067736  0.000000E+00 0.000000E+00)
(1.05197580834508  0.000000E+00 0.000000E+00)
(1.05115088066112  0.000000E+00 0.000000E+00)
(1.05033261788471  0.000000E+00 0.000000E+00)
(1.04951439983923  0.000000E+00 0.000000E+00)
(1.04870284670128  0.000000E+00 0.000000E+00)
(1.04789755589257  0.000000E+00 0.000000E+00)
(1.04709226508386  0.000000E+00 0.000000E+00)
(1.04629368391362  0.000000E+00 0.000000E+00)
(1.04550091776338  0.000000E+00 0.000000E+00)
(1.04473161995434  0.000000E+00 0.000000E+00)
(1.04401351597303  0.000000E+00 0.000000E+00)
(1.04330109209491  0.000000E+00 0.000000E+00)
(1.04258830044033  0.000000E+00 0.000000E+00)
(1.04188159752946  0.000000E+00 0.000000E+00)
(1.04118024780936  0.000000E+00 0.000000E+00)
(1.04047926586573  0.000000E+00 0.000000E+00)
(1.03978359624883  0.000000E+00 0.000000E+00)
(1.03909364759917  0.000000E+00 0.000000E+00)
(1.03840329030900  0.000000E+00 0.000000E+00)
(1.03770578908034  0.000000E+00 0.000000E+00)
(1.03698540993483  0.000000E+00 0.000000E+00)
(1.03626459719167  0.000000E+00 0.000000E+00)
(1.03554985481569  0.000000E+00 0.000000E+00)
(1.03484027225181  0.000000E+00 0.000000E+00)
(1.03413116664536  0.000000E+00 0.000000E+00)
(1.03342765444867  0.000000E+00 0.000000E+00)
(1.03272982238127  0.000000E+00 0.000000E+00)
(1.03203151335645  0.000000E+00 0.000000E+00)
(1.03133927469881  0.000000E+00 0.000000E+00)
(1.03065223921304  0.000000E+00 0.000000E+00)
(1.02993372115264  0.000000E+00 0.000000E+00)
(1.02920827012448  0.000000E+00 0.000000E+00)
(1.02848886606022  0.000000E+00 0.000000E+00)
(1.02776900039567  0.000000E+00 0.000000E+00)
(1.02705513553499  0.000000E+00 0.000000E+00)
(1.02634680987789  0.000000E+00 0.000000E+00)
(1.02563843806075  0.000000E+00 0.000000E+00)
(1.02493565160722  0.000000E+00 0.000000E+00)
(1.02423881979754  0.000000E+00 0.000000E+00)
(1.02354152638755  0.000000E+00 0.000000E+00)
(1.02285027994147  0.000000E+00 0.000000E+00)
(1.02214130347161  0.000000E+00 0.000000E+00)
(1.02140784828774  0.000000E+00 0.000000E+00)
(1.02068080701305  0.000000E+00 0.000000E+00)
(1.01995919289229  0.000000E+00 0.000000E+00)
(1.01923757877153  0.000000E+00 0.000000E+00)
(1.01852139180469  0.000000E+00 0.000000E+00)
(1.01781107603164  0.000000E+00 0.000000E+00)
(1.01710130297398  0.000000E+00 0.000000E+00)
(1.01639646369261  0.000000E+00 0.000000E+00)
(1.01569749560504  0.000000E+00 0.000000E+00)
(1.01499857685523  0.000000E+00 0.000000E+00)
(1.01430503592158  0.000000E+00 0.000000E+00)
(1.01358991417878  0.000000E+00 0.000000E+00)
(1.01285080175495  0.000000E+00 0.000000E+00)
(1.01211799611288  0.000000E+00 0.000000E+00)
(1.01139049028741  0.000000E+00 0.000000E+00)
(1.01066351444361  0.000000E+00 0.000000E+00)
(1.00994183841641  0.000000E+00 0.000000E+00)
(1.00922652216913  0.000000E+00 0.000000E+00)
(1.00851067594020  0.000000E+00 0.000000E+00)
(1.00780065950953  0.000000E+00 0.000000E+00)
(1.00709641987897  0.000000E+00 0.000000E+00)
(1.00639223324657  0.000000E+00 0.000000E+00)
(1.00569329343261  0.000000E+00 0.000000E+00)
(1.00500023641508  0.000000E+00 0.000000E+00)
(1.00426320596911  0.000000E+00 0.000000E+00)
(1.00351984770060  0.000000E+00 0.000000E+00)
(1.00278216042451  0.000000E+00 0.000000E+00)
(1.00204504597593  0.000000E+00 0.000000E+00)
(1.00131365980252  0.000000E+00 0.000000E+00)
(1.00058800190428  0.000000E+00 0.000000E+00)
(0.999862401288793 0.000000E+00 0.000000E+00)
(0.999142414382968 0.000000E+00 0.000000E+00)
(0.998428213035062 0.000000E+00 0.000000E+00)
(0.997714011687156 0.000000E+00 0.000000E+00)
(0.997005538614418 0.000000E+00 0.000000E+00)
(0.996302793816847 0.000000E+00 0.000000E+00)
(0.995599991736525 0.000000E+00 0.000000E+00)
(0.994896037549456 0.000000E+00 0.000000E+00)
(0.994143198888221 0.000000E+00 0.000000E+00)
(0.993389798826046 0.000000E+00 0.000000E+00)
(0.992642574174216 0.000000E+00 0.000000E+00)
(0.991901025909674 0.000000E+00 0.000000E+00)
(0.991160039046073 0.000000E+00 0.000000E+00)
(0.990424666191876 0.000000E+00 0.000000E+00)
(0.989694907347085 0.000000E+00 0.000000E+00)
(0.988965210880176 0.000000E+00 0.000000E+00)
(0.988241689823612 0.000000E+00 0.000000E+00)
(0.987523782776454 0.000000E+00 0.000000E+00)
(0.986805875729296 0.000000E+00 0.000000E+00)
(0.986093520313661 0.000000E+00 0.000000E+00)
(0.985386841285313 0.000000E+00 0.000000E+00)
(0.984680162256965 0.000000E+00 0.000000E+00)
(0.983955618732248 0.000000E+00 0.000000E+00)
(0.983192049051117 0.000000E+00 0.000000E+00)
(0.982428547851572 0.000000E+00 0.000000E+00)
(0.981671209994745 0.000000E+00 0.000000E+00)
(0.980919966999050 0.000000E+00 0.000000E+00)
(0.980168724003355 0.000000E+00 0.000000E+00)
(0.979423028016105 0.000000E+00 0.000000E+00)
(0.978684111705845 0.000000E+00 0.000000E+00)
(0.977944510579728 0.000000E+00 0.000000E+00)
(0.977210456462056 0.000000E+00 0.000000E+00)
(0.976483182021374 0.000000E+00 0.000000E+00)
(0.975755222764834 0.000000E+00 0.000000E+00)
(0.975033426851012 0.000000E+00 0.000000E+00)
(0.974317109464050 0.000000E+00 0.000000E+00)
(0.973600792077088 0.000000E+00 0.000000E+00)
(0.972890638032844 0.000000E+00 0.000000E+00)
(0.972161567200903 0.000000E+00 0.000000E+00)
(0.971383354304854 0.000000E+00 0.000000E+00)
(0.970611191654839 0.000000E+00 0.000000E+00)
(0.969845079250857 0.000000E+00 0.000000E+00)
(0.969078891218799 0.000000E+00 0.000000E+00)
(0.968318829060851 0.000000E+00 0.000000E+00)
(0.967564741520860 0.000000E+00 0.000000E+00)
(0.966810729608945 0.000000E+00 0.000000E+00)
(0.966063448595742 0.000000E+00 0.000000E+00)
(0.965320780895139 0.000000E+00 0.000000E+00)
(0.964578793847216 0.000000E+00 0.000000E+00)
(0.963842857045325 0.000000E+00 0.000000E+00)
(0.963112970489468 0.000000E+00 0.000000E+00)
(0.962382403280933 0.000000E+00 0.000000E+00)
(0.961657810690355 0.000000E+00 0.000000E+00)
(0.960939268345811 0.000000E+00 0.000000E+00)
(0.960220726001267 0.000000E+00 0.000000E+00)
(0.959507477622002 0.000000E+00 0.000000E+00)
(0.958754542273808 0.000000E+00 0.000000E+00)
(0.957990798488095 0.000000E+00 0.000000E+00)
(0.957232771958825 0.000000E+00 0.000000E+00)
(0.956481197761827 0.000000E+00 0.000000E+00)
(0.955729705239920 0.000000E+00 0.000000E+00)
(0.954983929974457 0.000000E+00 0.000000E+00)
(0.954243790290345 0.000000E+00 0.000000E+00)
(0.953504549032245 0.000000E+00 0.000000E+00)
(0.952770208279668 0.000000E+00 0.000000E+00)
(0.952025816109322 0.000000E+00 0.000000E+00)
(0.951256439768141 0.000000E+00 0.000000E+00)
(0.950492157490940 0.000000E+00 0.000000E+00)
(0.949734782419137 0.000000E+00 0.000000E+00)
(0.948977493687401 0.000000E+00 0.000000E+00)
(0.948226162420320 0.000000E+00 0.000000E+00)
(0.947480011557287 0.000000E+00 0.000000E+00)
(0.946734724094929 0.000000E+00 0.000000E+00)
(0.945995566777361 0.000000E+00 0.000000E+00)
(0.945261503523773 0.000000E+00 0.000000E+00)
(0.944506472190173 0.000000E+00 0.000000E+00)
(0.943734278464779 0.000000E+00 0.000000E+00)
(0.942968495266043 0.000000E+00 0.000000E+00)
(0.942202712067307 0.000000E+00 0.000000E+00)
(0.941442423605706 0.000000E+00 0.000000E+00)
(0.940688545670763 0.000000E+00 0.000000E+00)
(0.939935491946390 0.000000E+00 0.000000E+00)
(0.939187108748582 0.000000E+00 0.000000E+00)
(0.938446051866954 0.000000E+00 0.000000E+00)
(0.937704079195804 0.000000E+00 0.000000E+00)
(0.936965805571561 0.000000E+00 0.000000E+00)
(0.936188437415083 0.000000E+00 0.000000E+00)
(0.935409995275973 0.000000E+00 0.000000E+00)
(0.934637508858734 0.000000E+00 0.000000E+00)
(0.933871759241646 0.000000E+00 0.000000E+00)
(0.933105130911495 0.000000E+00 0.000000E+00)
(0.932345239381495 0.000000E+00 0.000000E+00)
(0.931592279921214 0.000000E+00 0.000000E+00)
(0.930838246478300 0.000000E+00 0.000000E+00)
(0.930090071122474 0.000000E+00 0.000000E+00)
(0.929347851488520 0.000000E+00 0.000000E+00)
(0.928606510567628 0.000000E+00 0.000000E+00)
(0.927818975703127 0.000000E+00 0.000000E+00)
(0.927036592189106 0.000000E+00 0.000000E+00)
(0.926253161728057 0.000000E+00 0.000000E+00)
(0.925477059896204 0.000000E+00 0.000000E+00)
(0.924706192799492 0.000000E+00 0.000000E+00)
(0.923935325702779 0.000000E+00 0.000000E+00)
(0.923170740288234 0.000000E+00 0.000000E+00)
(0.922412436555857 0.000000E+00 0.000000E+00)
(0.921654132823480 0.000000E+00 0.000000E+00)
(0.920902110773271 0.000000E+00 0.000000E+00)
(0.920156370405230 0.000000E+00 0.000000E+00)
(0.919398375086419 0.000000E+00 0.000000E+00)
(0.918599026117187 0.000000E+00 0.000000E+00)
(0.917806570035588 0.000000E+00 0.000000E+00)
(0.917014113953990 0.000000E+00 0.000000E+00)
(0.916227194782131 0.000000E+00 0.000000E+00)
(0.915447168497905 0.000000E+00 0.000000E+00)
(0.914667029215522 0.000000E+00 0.000000E+00)
(0.913893782820772 0.000000E+00 0.000000E+00)
(0.913124943354182 0.000000E+00 0.000000E+00)
(0.912357346867330 0.000000E+00 0.000000E+00)
(0.911596417271795 0.000000E+00 0.000000E+00)
(0.910840120600736 0.000000E+00 0.000000E+00)
(0.910084840913098 0.000000E+00 0.000000E+00)
(0.909293831077373 0.000000E+00 0.000000E+00)
(0.908485078083793 0.000000E+00 0.000000E+00)
(0.907676202235436 0.000000E+00 0.000000E+00)
(0.906874697673668 0.000000E+00 0.000000E+00)
(0.906078598722065 0.000000E+00 0.000000E+00)
(0.905282868334791 0.000000E+00 0.000000E+00)
(0.904493649250671 0.000000E+00 0.000000E+00)
(0.903710450050599 0.000000E+00 0.000000E+00)
(0.902927373705303 0.000000E+00 0.000000E+00)
(0.902150440098831 0.000000E+00 0.000000E+00)
(0.901379772085960 0.000000E+00 0.000000E+00)
(0.900608981218312 0.000000E+00 0.000000E+00)
(0.899844455944265 0.000000E+00 0.000000E+00)
(0.899073233067217 0.000000E+00 0.000000E+00)
(0.898241850993901 0.000000E+00 0.000000E+00)
(0.897417335396008 0.000000E+00 0.000000E+00)
(0.896599282363220 0.000000E+00 0.000000E+00)
(0.895781229330432 0.000000E+00 0.000000E+00)
(0.894969638862748 0.000000E+00 0.000000E+00)
(0.894164510960168 0.000000E+00 0.000000E+00)
(0.893359383057589 0.000000E+00 0.000000E+00)
(0.892560717720114 0.000000E+00 0.000000E+00)
(0.891768380310970 0.000000E+00 0.000000E+00)
(0.890976042901825 0.000000E+00 0.000000E+00)
(0.890189898784240 0.000000E+00 0.000000E+00)
(0.889410217231759 0.000000E+00 0.000000E+00)
(0.888630266405731 0.000000E+00 0.000000E+00)
(0.887856778144808 0.000000E+00 0.000000E+00)
(0.887035156496558 0.000000E+00 0.000000E+00)
(0.886188127179025 0.000000E+00 0.000000E+00)
(0.885347784935052 0.000000E+00 0.000000E+00)
(0.884514129764639 0.000000E+00 0.000000E+00)
(0.883680623195859 0.000000E+00 0.000000E+00)
(0.882853506497370 0.000000E+00 0.000000E+00)
(0.882033076872441 0.000000E+00 0.000000E+00)
(0.881212795849146 0.000000E+00 0.000000E+00)
(0.880398904696141 0.000000E+00 0.000000E+00)
(0.879591403413427 0.000000E+00 0.000000E+00)
(0.878784050732347 0.000000E+00 0.000000E+00)
(0.877982939319922 0.000000E+00 0.000000E+00)
(0.877188366379423 0.000000E+00 0.000000E+00)
(0.876393942040558 0.000000E+00 0.000000E+00)
(0.875605610368714 0.000000E+00 0.000000E+00)
(0.874823519965525 0.000000E+00 0.000000E+00)
(0.873979653175172 0.000000E+00 0.000000E+00)
(0.873140556189292 0.000000E+00 0.000000E+00)
(0.872308209265355 0.000000E+00 0.000000E+00)
(0.871475701625657 0.000000E+00 0.000000E+00)
(0.870649944047903 0.000000E+00 0.000000E+00)
(0.869830775816332 0.000000E+00 0.000000E+00)
(0.869011607584761 0.000000E+00 0.000000E+00)
(0.868199028699372 0.000000E+00 0.000000E+00)
(0.867363792249443 0.000000E+00 0.000000E+00)
(0.866508709407016 0.000000E+00 0.000000E+00)
(0.865660444047884 0.000000E+00 0.000000E+00)
(0.864819166609131 0.000000E+00 0.000000E+00)
(0.863977718733296 0.000000E+00 0.000000E+00)
(0.863142917903675 0.000000E+00 0.000000E+00)