/*--------------------------------*- C++ -*----------------------------------*\
| =========                 |                                                 |
| \\      /  F ield         | OpenFOAM: The Open Source CFD Toolbox           |
|  \\    /   O peration     | Version:  2.2.0                                 |
|   \\  /    A nd           | Web:      www.OpenFOAM.org                      |
|    \\/     M anipulation  |                                                 |
\*---------------------------------------------------------------------------*/
FoamFile
{
    version     2.0;
    format      ascii;
    class       dictionary;
    object      sampleDict;
}
// * * * * * * * * * * * * * * * * * * * * * * * * * * * * * * * * * * * * //

libs ("libsampling.so");

type sets;

setFormat raw;

formatOptions
{
    ensight
    {
        format  ascii;
    }
}

interpolationScheme cellPoint;

fields (U Rall);

sets
(

    // BOW
    XoRm0.1
    {
        type points;
        axis xyz;
        ordered true;
        points (#include "cluster0/XoR0.1.xy");
        interpolate true;
        //type        lineUniform;
        //axis        y;
        //start       (-0.1  0.0 0);
        //end         (-0.1  1. 0);
        //nPoints     98;
    }
    XoR0.0
    {
        type points;
        axis xyz;
        ordered true;
        points (#include "cluster0/XoR0.0.xy");
        interpolate true;
        //type        lineUniform;
        //axis        y;
        //start       (0.  0.0 0); 
        //end         (0.  1. 0); 
        //nPoints     87;
    }
    XoRp0.1
    {
        type points;
        axis xyz;
        ordered true;
        points (#include "cluster0/XoR0.1.xy");
        interpolate true;
        //type        lineUniform;
        //axis        y;
        //start       (0.1  0.0 0); 
        //end         (0.1  1. 0); 
        //nPoints     94;
    }
    XoRp0.2
    {
        type points;
        axis xyz;
        ordered true;
        points (#include "cluster0/XoR0.2.xy");
        interpolate true;
        //type        lineUniform;
        //axis        y;
        //start       (0.2  0.0 0);
        //end         (0.2  1. 0);
        //nPoints     96;
    }
    XoRp0.3
    {
        type points;
        axis xyz;
        ordered true;
        points (#include "cluster0/XoR0.3.xy");
        interpolate true;
        //type        lineUniform;
        //axis        y;
        //start       (0.3  0.0 0);
        //end         (0.3  1. 0);
        //nPoints     98;
    }
    XoRp0.4
    {
        type points;
        axis xyz;
        ordered true;
        points (#include "cluster0/XoR0.4.xy");
        interpolate true;
        //type        lineUniform;
        //axis        y;
        //start       (0.4  0.0 0); 
        //end         (0.4  1. 0); 
        //nPoints     98;
    }
    XoRp0.5
    {
        type points;
        axis xyz;
        ordered true;
        points (#include "cluster0/XoR0.5.xy");
        interpolate true;
        //type        lineUniform;
        //axis        y;
        //start       (0.5  0.0 0);
        //end         (0.5  1. 0);
        //nPoints     98;
    }
    XoRp0.6
    {
        type points;
        axis xyz;
        ordered true;
        points (#include "cluster0/XoR0.6.xy");
        interpolate true;
        //type        lineUniform;
        //axis        y;
        //start       (0.6  0.0 0);
        //end         (0.6  1. 0);
        //nPoints     98;
    }
    XoRp0.7
    {
        type points;
        axis xyz;
        ordered true;
        points (#include "cluster0/XoR0.7.xy");
        interpolate true;
        //type        lineUniform;
        //axis        y;
        //start       (0.7  0.0 0);
        //end         (0.7  1. 0);
        //nPoints     98;
    }
    XoRp0.8
    {
        type points;
        axis xyz;
        ordered true;
        points (#include "cluster0/XoR0.8.xy");
        interpolate true;
        //type        lineUniform;
        //axis        y;
        //start       (0.8  0.0 0); 
        //end         (0.8  1. 0); 
        //nPoints     98;
    }
    XoRp0.9
    {
        type points;
        axis xyz;
        ordered true;
        points (#include "cluster0/XoR0.9.xy");
        interpolate true;
        //type        lineUniform;
        //axis        y;
        //start       (0.9  0.0 0);
        //end         (0.9  1. 0);
        //nPoints     98;
    }
    XoRp1.0
    {
        type points;
        axis xyz;
        ordered true;
        points (#include "cluster0/XoR1.0.xy");
        interpolate true;
        //type        lineUniform;
        //axis        y;
        //start       (1.0  0.0 0);
        //end         (1.0  1. 0);
        //nPoints     98;
    }
    XoRp1.1
    {
        type points;
        axis xyz;
        ordered true;
        points (#include "cluster0/XoR1.1.xy");
        interpolate true;
        //type        lineUniform;
        //axis        y;
        //start       (1.1  0.0 0);
        //end         (1.1  1. 0);
        //nPoints     98;
    }
    // CENTER
    XoRp4.17
    {
        type points;
        axis xyz;
        ordered true;
        points (#include "cluster0/XoR4.17.xy");
        interpolate true;
        //type        lineUniform;
        //axis        y;
        //start       (4.17 0.0 0.0); 
        //end         (4.17 1.0 0.0);
        //nPoints     98;
    }
    XoRp4.27
    {
        type points;
        axis xyz;
        ordered true;
        points (#include "cluster0/XoR4.27.xy");
        interpolate true;
        //type        lineUniform;
        //axis        y;
        //start       (4.27 0.0 0.0); 
        //end         (4.27 1.0 0.0);
        //nPoints     98;
    }
    XoRp4.37
    {
        type points;
        axis xyz;
        ordered true;
        points (#include "cluster0/XoR4.37.xy");
        interpolate true;
        //type        lineUniform;
        //axis        y;
        //start       (4.37 0.0 0.0); 
        //end         (4.37 1.0 0.0); 
        //nPoints     98;
    }
    XoRp4.47
    {
        type points;
        axis xyz;
        ordered true;
        points (#include "cluster0/XoR4.47.xy");
        interpolate true;
        //type        lineUniform;
        //axis        y;
        //start       (4.47 0.0 0.0); 
        //end         (4.47 1.0 0.0); 
        //nPoints     98;
    }
    XoRp4.57
    {
        type points;
        axis xyz;
        ordered true;
        points (#include "cluster0/XoR4.57.xy");
        interpolate true;
        //type        lineUniform;
        //axis        y;
        //start       (4.57 0.0 0.0); 
        //end         (4.57 1.0 0.0); 
        //nPoints     98;
    }
    XoRp4.67
    {
        type points;
        axis xyz;
        ordered true;
        points (#include "cluster0/XoR4.67.xy");
        interpolate true;
        //type        lineUniform;
        //axis        y;
        //start       (4.67 0.0 0.0); 
        //end         (4.67 1.0 0.0); 
        //nPoints     98;
    }
    XoRp4.77
    {
        type points;
        axis xyz;
        ordered true;
        points (#include "cluster0/XoR4.77.xy");
        interpolate true;
        //type        lineUniform;
        //axis        y;
        //start       (4.77 0.0 0.0); 
        //end         (4.77 1.0 0.0); 
        //nPoints     98;
    }
    XoRp4.87
    {
        type points;
        axis xyz;
        ordered true;
        points (#include "cluster0/XoR4.87.xy");
        interpolate true;
        //type        lineUniform;
        //axis        y;
        //start       (4.87 0.0 0.0); 
        //end         (4.87 1.0 0.0); 
        //nPoints     98;
    }
    XoRp4.97
    {
        type points;
        axis xyz;
        ordered true;
        points (#include "cluster0/XoR4.97.xy");
        interpolate true;
        //type        lineUniform;
        //axis        y;
        //start       (4.97 0.0 0.0); 
        //end         (4.97 1.0 0.0); 
        //nPoints     98;
    }
    XoRp5.07
    {
        type points;
        axis xyz;
        ordered true;
        points (#include "cluster0/XoR5.07.xy");
        interpolate true;
        //type        lineUniform;
        //axis        y;
        //start       (5.07 0.0 0.0); 
        //end         (5.07 1.0 0.0); 
        //nPoints     97;
    }
    XoRp5.17
    {
        type points;
        axis xyz;
        ordered true;
        points (#include "cluster0/XoR5.17.xy");
        interpolate true;
        //type        lineUniform;
        //axis        y;
        //start       (5.17 0.0 0.0); 
        //end         (5.17 1.0 0.0); 
        //nPoints     97;
    }
    XoRp5.27
    {
        type points;
        axis xyz;
        ordered true;
        points (#include "cluster0/XoR5.27.xy");
        interpolate true;
        //type        lineUniform;
        //axis        y;
        //start       (5.27 0.0 0.0); 
        //end         (5.27 1.0 0.0); 
        //nPoints     93;
    }
    XoRp5.37
    {
        type points;
        axis xyz;
        ordered true;
        points (#include "cluster0/XoR5.37.xy");
        interpolate true;
        //type        lineUniform;
        //axis        y;
        //start       (5.37 0.0 0.0);
        //end         (5.37 1.0 0.0); 
        //nPoints     93;
    }
    XoRp5.47
    {
        type points;
        axis xyz;
        ordered true;
        points (#include "cluster0/XoR5.47.xy");
        interpolate true;
        //type        lineUniform;
        //axis        y;
        //start       (5.47 0.0 0.0);
        //end         (5.47 1.0 0.0); 
        //nPoints     93;
    }
    // STERN
    XoRp8.67
    {
        type points;
        axis xyz;
        ordered true;
        points (#include "cluster0/XoR8.67.xy");
        interpolate true;
        //type        lineUniform;
        //axis        y;
        //start       (8.6667 0.0 0.0); 
        //end         (8.6667 1.0 0.0); 
        //nPoints     91;
    }
    XoRp8.92
    {
        type points;
        axis xyz;
        ordered true;
        points (#include "cluster0/XoR8.92.xy");
        interpolate true;
        //type        lineUniform;
        //axis        y;
        //start       (8.9167 0.0 0.0); 
        //end         (8.9167 1.0 0.0); 
        //nPoints     91;
    }
    XoRp9.17
    {
        type points;
        axis xyz;
        ordered true;
        points (#include "cluster0/XoR9.17.xy");
        interpolate true;
        //type        lineUniform;
        //axis        y;
        //start       (9.1667 0.0 0.0);
        //end         (9.1667 1.0 0.0); 
        //nPoints     91;
    }
    XoRp9.42
    {
        type points;
        axis xyz;
        ordered true;
        points (#include "cluster0/XoR9.42.xy");
        interpolate true;
        //type        lineUniform;
        //axis        y;
        //start       (9.4167 0.0 0.0); 
        //end         (9.4167 1.0 0.0);
        //nPoints     91;
    }
    XoRp9.67
    {
        type points;
        axis xyz;
        ordered true;
        points (#include "cluster0/XoR9.67.xy");
        interpolate true;
        //type        lineUniform;
        //axis        y;
        //start       (9.6667 0.0 0.0); 
        //end         (9.6667 1.0 0.0); 
        //nPoints     91;
    }
    XoRp9.92
    {
        type points;
        axis xyz;
        ordered true;
        points (#include "cluster0/XoR9.92.xy");
        interpolate true;
        //type        lineUniform;
        //axis        y;
        //start       (9.9167 0.0 0.0); 
        //end         (9.9167 1.0 0.0); 
        //nPoints     91;
    }
    XoRp10.17
    {
        type points;
        axis xyz;
        ordered true;
        points (#include "cluster0/XoR10.17.xy");
        interpolate true;
        //type        lineUniform;
        //axis        y;
        //start       (10.1667 0.0 0.0); 
        //end         (10.1667 1.0 0.0); 
        //nPoints     91;
    }
    XoRp10.42
    {
        type points;
        axis xyz;
        ordered true;
        points (#include "cluster0/XoR10.42.xy");
        interpolate true;
        //type        lineUniform;
        //axis        y;
        //start       (10.4167 0.0 0.0); 
        //end         (10.4167 1.0 0.0); 
        //nPoints     91;
    }   
    XoRp10.67
    {
        type points;
        axis xyz;
        ordered true;
        points (#include "cluster0/XoR10.67.xy");
        interpolate true;
        //type        lineUniform;
        //axis        y;
        //start       (10.6667 0.0 0.0); 
        //end         (10.6667 1.0 0.0);
        //nPoints     91;
    }
    XoRp10.92
    {
        type points;
        axis xyz;
        ordered true;
        points (#include "cluster0/XoR10.92.xy");
        interpolate true;
        //type        lineUniform;
        //axis        y;
        //start       (10.9167 0.0 0.0); 
        //end         (10.9167 1.0 0.0); 
        //nPoints     90;
    }
    XoRp11.17
    {
        type points;
        axis xyz;
        ordered true;
        points (#include "cluster0/XoR11.17.xy");
        interpolate true;
        //type        lineUniform;
        //axis        y;
        //start       (11.1667 0.0 0.0); 
        //end         (11.1667 1.0 0.0); 
        //nPoints     90;
    }
    XoRp11.42
    {
        type points;
        axis xyz;
        ordered true;
        points (#include "cluster0/XoR11.42.xy");
        interpolate true;
        //type        lineUniform;
        //axis        y;
        //start       (11.4167 0.0 0.0);
        //end         (11.4167 1.0 0.0);
        //nPoints     90;
    }
    XoRp11.67
    {
        type points;
        axis xyz;
        ordered true;
        points (#include "cluster0/XoR11.67.xy");
        interpolate true;
        //type        lineUniform;
        //axis        y;
        //start       (11.6667 0.0 0.0); 
        //end         (11.6667 1.0 0.0); 
        //nPoints     91;
    }
    XoRp11.92
    {
        type points;
        axis xyz;
        ordered true;
        points (#include "cluster0/XoR11.92.xy");
        interpolate true;
        //type        lineUniform;
        //axis        y;
        //start       (11.9167 0.0 0.0); 
        //end         (11.9167 1.0 0.0); 
        //nPoints     91;
    }
    XoRp12.17
    {
        type points;
        axis xyz;
        ordered true;
        points (#include "cluster0/XoR12.17.xy");
        interpolate true;
        //type        lineUniform;
        //axis        y;
        //start       (12.1667 0.0 0.0); 
        //end         (12.1667 1.0 0.0); 
        //nPoints     91;
    }
    // WAKE
    XoRp12.9167
    {
        type points;
        axis xyz;
        ordered true;
        points (#include "cluster0/XoR12.9167.xy");
        interpolate true;
        //type        lineUniform;
        //axis        y;
        //start       (12.9167 0.0 0.0); 
        //end         (12.9167 1.0 0.0); 
        //nPoints     93;
    }
    XoRp13.17
    {
        type points;
        axis xyz;
        ordered true;
        points (#include "cluster0/XoR13.17.xy");
        interpolate true;
        //type        lineUniform;
        //axis        y;
        //start       (13.1667 0.0 0.0); 
        //end         (13.1667 1.0 0.0); 
        //nPoints     93;
    }
    XoRp13.4167
    {
        type points;
        axis xyz;
        ordered true;
        points (#include "cluster0/XoR13.4167.xy");
        interpolate true;
        //type        lineUniform;
        //axis        y;
        //start       (13.4167 0.0 0.0); 
        //end         (13.4167 1.0 0.0); 
        //nPoints     93;
    }
    XoRp13.67
    {
        type points;
        axis xyz;
        ordered true;
        points (#include "cluster0/XoR13.67.xy");
        interpolate true;
        //type        lineUniform;
        //axis        y;
        //start       (13.6667 0.0 0.0); 
        //end         (13.6667 1.0 0.0); 
        //nPoints     93;
    }
    XoRp13.9167
    {
        type points;
        axis xyz;
        ordered true;
        points (#include "cluster0/XoR13.9167.xy");
        interpolate true;
        //type        lineUniform;
        //axis        y;
        //start       (13.9167 0.0 0.0); 
        //end         (13.9167 1.0 0.0); 
        //nPoints     93;
    }
    XoRp14.17
    {
        type points;
        axis xyz;
        ordered true;
        points (#include "cluster0/XoR14.17.xy");
        interpolate true;
        //type        lineUniform;
        //axis        y;
        //start       (14.1667 0.0 0.0); 
        //end         (14.1667 1.0 0.0); 
        //nPoints     93;
    }
    XoRp14.4167
    {
        type points;
        axis xyz;
        ordered true;
        points (#include "cluster0/XoR14.4167.xy");
        interpolate true;
        //type        lineUniform;
        //axis        y;
        //start       (14.4167 0.0 0.0); 
        //end         (14.4167 1.0 0.0); 
        //nPoints     93;
    }
    XoRp14.67
    {
        type points;
        axis xyz;
        ordered true;
        points (#include "cluster0/XoR14.67.xy");
        interpolate true;
        //type        lineUniform;
        //axis        y;
        //start       (14.6667 0.0 0.0); 
        //end         (14.6667 1.0 0.0); 
        //nPoints     93;
    }
    XoRp14.9167
    {
        type points;
        axis xyz;
        ordered true;
        points (#include "cluster0/XoR14.9167.xy");
        interpolate true;
        //type        lineUniform;
        //axis        y;
        //start       (14.9167 0.0 0.0); 
        //end         (14.9167 1.0 0.0);
        //nPoints     93;
    }
    XoRp15.17
    {
        type points;
        axis xyz;
        ordered true;
        points (#include "cluster0/XoR15.17.xy");
        interpolate true;
        //type        lineUniform;
        //axis        y;
        //start       (15.1667 0.0 0.0); 
        //end         (15.1667 1.0 0.0); 
        //nPoints     93;
    }
    XoRp15.4167
    {
        type points;
        axis xyz;
        ordered true;
        points (#include "cluster0/XoR15.4167.xy");
        interpolate true;
        //type        lineUniform;
        //axis        y;
        //start       (15.4167 0.0 0.0); 
        //end         (15.4167 1.0 0.0); 
        //nPoints     93;
    }
    XoRp15.67
    {
        type points;
        axis xyz;
        ordered true;
        points (#include "cluster0/XoR15.67.xy");
        interpolate true;
        //type        lineUniform;
        //axis        y;
        //start       (15.6667 0.0 0.0); 
        //end         (15.6667 1.0 0.0); 
        //nPoints     93;
    }
    XoRp15.9167
    {
        type points;
        axis xyz;
        ordered true;
        points (#include "cluster0/XoR15.9167.xy");
        interpolate true;
        //type        lineUniform;
        //axis        y;
        //start       (15.9167 0.0 0.0);
        //end         (15.9167 1.0 0.0); 
        //nPoints     93;
    }
    XoRp16.17
    {
        type points;
        axis xyz;
        ordered true;
        points (#include "cluster0/XoR16.17.xy");
        interpolate true;
        //type        lineUniform;
        //axis        y;
        //start       (16.1667 0.0 0.0); 
        //end         (16.1667 1.0 0.0); 
        //nPoints     93;
    }
    XoRp16.4167
    {
        type points;
        axis xyz;
        ordered true;
        points (#include "cluster0/XoR16.4167.xy");
        interpolate true;
        //type        lineUniform;
        //axis        y;
        //start       (16.4167 0.0 0.0); 
        //end         (16.4167 1.0 0.0); 
        //nPoints     93;
    }
);

// *********************************************************************** //
