/*--------------------------------*- C++ -*----------------------------------*\
| =========                 |                                                 |
| \\      /  F ield         | OpenFOAM: The Open Source CFD Toolbox           |
|  \\    /   O peration     | Version:  2.2.0                                 |
|   \\  /    A nd           | Web:      www.OpenFOAM.org                      |
|    \\/     M anipulation  |                                                 |
\*---------------------------------------------------------------------------*/
FoamFile
{
    version     2.0;
    format      ascii;
    class       dictionary;
    object      sampleDict;
}
// * * * * * * * * * * * * * * * * * * * * * * * * * * * * * * * * * * * * //

libs ("libsampling.so");

type sets;

//setFormat raw;
setFormat csv;

formatOptions
{
    ensight
    {
        format  ascii;
    }
}

interpolationScheme cellPoint;

fields (U R);

sets
(
//    // BOW
//    XoR-0.1
//    {
//        type        face;
//        axis        y;
//        start       (-0.1  0.0 0);
//        end         (-0.1  1. 0);
//        //nPoints     98;
//    }
//    XoR0.0
//    {
//        type        face;
//        axis        y;
//        start       (0.  0.0 0); 
//        end         (0.  1. 0); 
//        //nPoints     87;
//    }
//    XoR0.1
//    {
//        type        face;
//        axis        y;
//        start       (0.1  0.0 0); 
//        end         (0.1  1. 0); 
//        //nPoints     94;
//    }
//    XoR0.2
//    {
//        type        face;
//        axis        y;
//        start       (0.2  0.0 0);
//        end         (0.2  1. 0);
//        //nPoints     96;
//    }
//    XoR0.3
//    {
//        type        face;
//        axis        y;
//        start       (0.3  0.0 0);
//        end         (0.3  1. 0);
//        //nPoints     98;
//    }
//    XoR0.4
//    {
//        type        face;
//        axis        y;
//        start       (0.4  0.0 0); 
//        end         (0.4  1. 0); 
//        //nPoints     98;
//    }
//    XoR0.5
//    {
//        type        face;
//        axis        y;
//        start       (0.5  0.0 0);
//        end         (0.5  1. 0);
//        //nPoints     98;
//    }
//    XoR0.6
//    {
//        type        face;
//        axis        y;
//        start       (0.6  0.0 0);
//        end         (0.6  1. 0);
//        //nPoints     98;
//    }
//    XoR0.7
//    {
//        type        face;
//        axis        y;
//        start       (0.7  0.0 0);
//        end         (0.7  1. 0);
//        //nPoints     98;
//    }
//    XoR0.8
//    {
//        type        face;
//        axis        y;
//        start       (0.8  0.0 0); 
//        end         (0.8  1. 0); 
//        //nPoints     98;
//    }
//    XoR0.9
//    {
//        type        face;
//        axis        y;
//        start       (0.9  0.0 0);
//        end         (0.9  1. 0);
//        //nPoints     98;
//    }
//    XoR1.0
//    {
//        type        face;
//        axis        y;
//        start       (1.0  0.0 0);
//        end         (1.0  1. 0);
//        //nPoints     98;
//    }
//    XoR1.1
//    {
//        type        face;
//        axis        y;
//        start       (1.1  0.0 0);
//        end         (1.1  1. 0);
//        //nPoints     98;
//    }

     // CENTER
    XoR4.17
    {
        type        face;
        axis        y;
        start       (4.17 0.0 0.0);
        end         (4.17 1.0 0.0);
        //nPoints     98;
    }
    XoR4.27
    {
        type        face;
        axis        y;
        start       (4.27 0.0 0.0);
        end         (4.27 1.0 0.0);
        //nPoints     98;
    }
    XoR4.37
    {
        type        face;
        axis        y;
        start       (4.37 0.0 0.0);
        end         (4.37 1.0 0.0);
        //nPoints     98;
    }
    XoR4.47
    {
        type        face;
        axis        y;
        start       (4.47 0.0 0.0);
        end         (4.47 1.0 0.0);
        //nPoints     98;
    }
    XoR4.57
    {
        type        face;
        axis        y;
        start       (4.57 0.0 0.0);
        end         (4.57 1.0 0.0);
        //nPoints     98;
    }
    XoR4.67
    {
        type        face;
        axis        y;
        start       (4.67 0.0 0.0);
        end         (4.67 1.0 0.0);
        //nPoints     98;
    }
    XoR4.77
    {
        type        face;
        axis        y;
        start       (4.77 0.0 0.0);
        end         (4.77 1.0 0.0);
        //nPoints     98;
    }
    XoR4.87
    {
        type        face;
        axis        y;
        start       (4.87 0.0 0.0);
        end         (4.87 1.0 0.0);
        //nPoints     98;
    }
    XoR4.97
    {
        type        face;
        axis        y;
        start       (4.97 0.0 0.0);
        end         (4.97 1.0 0.0);
        //nPoints     98;
    }
    XoR5.07
    {
        type        face;
        axis        y;
        start       (5.07 0.0 0.0);
        end         (5.07 1.0 0.0);
        //nPoints     97;
    }
    XoR5.17
    {
        type        face;
        axis        y;
        start       (5.17 0.0 0.0);
        end         (5.17 1.0 0.0);
        //nPoints     97;
    }
    XoR5.27
    {
        type        face;
        axis        y;
        start       (5.27 0.0 0.0);
        end         (5.27 1.0 0.0);
        //nPoints     93;
    }
    XoR5.37
    {
        type        face;
        axis        y;
        start       (5.37 0.0 0.0);
        end         (5.37 1.0 0.0);
        //nPoints     93;
    }
    XoR5.47
    {
        type        face;
        axis        y;
        start       (5.47 0.0 0.0);
        end         (5.47 1.0 0.0);
        //nPoints     93;
    }

);

// *********************************************************************** //
