/*--------------------------------*- C++ -*----------------------------------*\
  =========                 |
  \\      /  F ield         | OpenFOAM: The Open Source CFD Toolbox
   \\    /   O peration     | Website:  https://openfoam.org
    \\  /    A nd           | Version:  6
     \\/     M anipulation  |
\*---------------------------------------------------------------------------*/
FoamFile
{
    version     2.0;
    format      ascii;
    class       dictionary;
    location    "system";
    object      fvSolution;
}
// * * * * * * * * * * * * * * * * * * * * * * * * * * * * * * * * * * * * * //

solvers
{
    p
    {
        solver          GAMG;
        tolerance       1e-07;
        relTol          1e-07;
        smoother        GaussSeidel;
    }
    
    Phi
    {
        $p;
    }

    "(U|k|omega)"
    {
        solver          smoothSolver;
        smoother        symGaussSeidel;
        tolerance       1e-07;
        relTol          1e-07;
    }
}

potentialFlow
{
    nNonOrthogonalCorrectors 6;
}

SIMPLE
{
    nNonOrthogonalCorrectors 0;

    residualControl
    {
        p                       1e-07;
        U                       1e-07;
        "(k|epsilon|R|omega)"   1e-07;
    }
}

relaxationFactors
{
    fields
    {
        p               0.4;
    }
    equations
    {
        U               0.7;
        k               0.7;
        epsilon         0.7;
        R               0.7;
        omega           0.7;
    }
}


// ************************************************************************* //
