/*--------------------------------*- C++ -*----------------------------------*\
| =========                 |                                                 |
| \\      /  F ield         | OpenFOAM: The Open Source CFD Toolbox           |
|  \\    /   O peration     | Version:  2.4.0                                 |
|   \\  /    A nd           | Web:      www.OpenFOAM.org                      |
|    \\/     M anipulation  |                                                 |
\*---------------------------------------------------------------------------*/
FoamFile
{
    version     2.0;
    format      ascii;
    class       scalarAverageField;
    object      values;
}
// * * * * * * * * * * * * * * * * * * * * * * * * * * * * * * * * * * * * * //

//Data on Points
0

2700
(
//wedge0
0.00197831419346301
0.00197832389443705
0.00197833361510537
0.00197834341632234
0.00197835333868009
0.00197836326038576
0.00197837326262756
0.00197838340622632
0.00197839352888049
0.00197840375229164
0.00197841409674172
0.00197842444050499
0.00197843488495555
0.00197844545041147
0.00197845601513054
0.00197846668050678
0.00197847748708638
0.00197848827262408
0.00197849915878776
0.00197851018607410
0.00197852119235266
0.00197853233975733
0.00197854358758629
0.00197855483460291
0.00197856620229682
0.00197857771112485
0.00197858919882326
0.00197860080733950
0.00197861253644370
0.00197862428493885
0.00197863613370953
0.00197864812347823
0.00197866233173806
0.00197870383692281
0.00197874581853067
0.00197878772007120
0.00197883016703023
0.00197887295012298
0.00197891579226946
0.00197895904024735
0.00197900276240988
0.00197904647378215
0.00197909058955520
0.00197913524870741
0.00197917982731944
0.00197922494810263
0.00197927047215245
0.00197931605372065
0.00197936203879394
0.00197940849555022
0.00197945500928124
0.00197950199416022
0.00197954945049822
0.00197959689341362
0.00197964480727927
0.00197969326078479
0.00197974170032228
0.00197979060917521
0.00197984005665893
0.00197992349121676
0.00198001996957676
0.00198011760061488
0.00198021505172527
0.00198031352158681
0.00198041300735942
0.00198051244460383
0.00198061289575490
0.00198071449217728
0.00198081590512031
0.00198091832972248
0.00198102189446457
0.00198112540786627
0.00198122992782456
0.00198133545274814
0.00198144092295089
0.00198154752836426
0.00198165526848287
0.00198176295019271
0.00198187163203041
0.00198198144309897
0.00198209119481823
0.00198223754157353
0.00198241472472023
0.00198259177049801
0.00198277075942985
0.00198295127062693
0.00198313164115984
0.00198331394245187
0.00198349796627292
0.00198368183949152
0.00198386763681229
0.00198405514420141
0.00198424249513040
0.00198443175917691
0.00198462272275123
0.00198481373237651
0.00198500643534478
0.00198520123920655
0.00198539587601278
0.00198559219501917
0.00198582308045791
0.00198610447050527
0.00198638845151408
0.00198667530484306
0.00198696182847314
0.00198725092369303
0.00198754286491667
0.00198783446405441
0.00198812889837035
0.00198842586848882
0.00198872277237180
0.00198902248686041
0.00198932471347703
0.00198962685661486
0.00198993178835012
0.00199023978144611
0.00199054710551388
0.00199090906364073
0.00199132195236558
0.00199173382700034
0.00199214993240635
0.00199256950232898
0.00199298841132159
0.00199341113890592
0.00199383803040101
0.00199426386412128
0.00199469383516667
0.00199512718766280
0.00199556020187503
0.00199599729000263
0.00199643810913899
0.00199687819342614
0.00199737355351034
0.00199793329087784
0.00199849186319340
0.00199905525482784
0.00199962343322983
0.00200019045485512
0.00200076267578582
0.00200133960759409
0.00200191534306738
0.00200249619891588
0.00200308168927068
0.00200366589879954
0.00200425564235288
0.00200484989697745
0.00200554669187025
0.00200626537289860
0.00200699021757927
0.00200771324215227
0.00200844241724028
0.00200917710668365
0.00200991050021830
0.00201064939688696
0.00201139421981337
0.00201213715869000
0.00201288647987281
0.00201364113496772
0.00201445151809294
0.00201533688021232
0.00201622923241368
0.00201711888031615
0.00201801476651806
0.00201891813600969
0.00201981872140601
0.00202072538336227
0.00202163988738022
0.00202255099397149
0.00202346919214040
0.00202440094195109
0.00202545006446806
0.00202650741576918
0.00202757150122017
0.00202863183134540
0.00202970016213026
0.00203077566742014
0.00203184724805711
0.00203292594965287
0.00203401296424433
0.00203509530408615
0.00203624812574633
0.00203747131606532
0.00203868874291561
0.00203991449012667
0.00204114849271185
0.00204237668894086
0.00204361361379089
0.00204485780561696
0.00204609670185879
0.00204734409566140
0.00204867967090405
0.00205004552742827
0.00205141974314815
0.00205280148945334
0.00205417672599464
0.00205555997686784
0.00205695180727914
0.00205833625837026
0.00205972917044428
0.00206118381515312
0.00206268123297394
0.00206418591469014
0.00206569927293717
0.00206720376287802
0.00206871670973732
0.00207023783685183
0.00207175003228927
0.00207327026819836
0.00207487585517830
0.00207648057132459
0.00207809191010461
0.00207971119079091
0.00208132071568853
0.00208293801301370
0.00208456195923093
0.00208617689853972
0.00208784153429268
0.00208952394808064
0.00209119611833885
0.00209287450968402
0.00209455978291486
0.00209623384007339
0.00209791452696005
0.00209960368548819
0.00210129251247831
0.00210298745569419
0.00210468753777092
0.00210637605453828
0.00210807024650537
0.00210976971916893
0.00211145686148818
0.00211313570962665
0.00211481596798469
0.00211648378484408
0.00211815549021332
0.00211983270050670
0.00212149609836214
0.00212316480425122
0.00212479799293482
0.00212641496791936
0.00212803517058263
0.00212965902664342
0.00213126917216397
0.00213288334046036
0.00213447415075258
0.00213599921959183
0.00213752639344708
0.00213905637481527
0.00214057199185707
0.00214209031015768
0.00214360670081547
0.00214498703502963
0.00214636817758991
0.00214775092332478
0.00214912020986331
0.00215049048626386
0.00215186190416022
0.00215303415631424
0.00215420609717092
0.00215537888061817
0.00215653909909162
0.00215769962803692
0.00215880578267081
0.00215970187946388
0.00216059775498409
0.00216149322651882
0.00216237914806505
0.00216326428965691
0.00216393693649145
0.00216449318863503
0.00216504864811488
0.00216560360307207
0.00216615205018594
0.00216657678806091
0.00216673209166311
0.00216688544214990
0.00216703595735738
0.00216718362477132
0.00216731041068580
0.00216701605555547
0.00216672765055916
0.00216644273421828
0.00216616343896876
0.00216588962532183
0.00216531199245772
0.00216457013923065
0.00216384335297772
0.00216312523991823
0.00216242113287335
0.00216169683711343
0.00216048960051648
0.00215930633710654
0.00215814652418139
0.00215700043078175
0.00215587678215588
0.00215458964940889
0.00215293735195747
0.00215131759090162
0.00214972955990965
0.00214816067296902
0.00214662167312585
0.00214486627813183
0.00214277310516156
0.00214072083579809
0.00213870896122114
0.00213672055234172
0.00213477040216946
0.00213266843929369
0.00213013607452909
0.00212765439021876
0.00212522044511380
0.00212281554483640
0.00212045642552708
0.00211814302618874
0.00211519051010930
0.00211227898800336
0.00210942410744139
0.00210660218849238
0.00210383576417991
0.00210112142099968
0.00209812040515231
0.00209477769781189
0.00209149973976726
0.00208826078695073
0.00208508392224452
0.00208196766495109
0.00207888624041965
0.00207536073369786
0.00207165541606842
0.00206799292040990
0.00206440040204974
0.00206087877617272
0.00205739523290129
0.00205397725226871
0.00205012222525329
0.00204602844711126
0.00204201407138208
0.00203807701692991
0.00203418462740972
0.00203036661287039
0.00202662138424754
0.00202263539891836
0.00201818540162490
0.00201382110373608
0.00200950856949107
0.00200527636167884
0.00200112663243947
0.00199702080110873
0.00199299440230183
0.00198840705187438
0.00198365361473181
0.00197899298646542
0.00197442272216671
0.00196990191423425
0.00196546829108890
0.00196111758431110
0.00195681437534218
0.00195185441029015
0.00194683935759193
0.00194188174463201
0.00193701981794491
0.00193224901830528
0.00192753336703296
0.00192290517250290
0.00191836507526291
0.00191334867927220
0.00190802940610454
0.00190281233721463
0.00189765452104518
0.00189259525785675
0.00188763222307264
0.00188272374272232
0.00187790548132810
0.00187317996499507
0.00186762257099102
0.00186209557429732
0.00185667414208309
0.00185131438161675
0.00184605863312258
0.00184089927217429
0.00183579916229865
0.00183079449116679
0.00182588018083840
0.00182016939285578
0.00181442562161153
0.00180879358027005
0.00180322578934333
0.00179776544650752
0.00179240734401060
0.00178710812492690
0.00178191025746283
0.00177680566673388
0.00177140945320111
0.00176543714598815
0.00175958061705733
0.00175378820641796
0.00174811044606559
0.00174253876827287
0.00173703175031359
0.00173162648226883
0.00172632375359609
0.00172107484904538
0.00171559498494565
0.00170949086984322
0.00170345419158840
0.00169753737159114
0.00169173008679431
0.00168599209033214
0.00168036286405699
0.00167484054551980
0.00166937471889185
0.00166401494406336
0.00165875215705252
0.00165275937967851
0.00164656854030270
0.00164050080733226
0.00163449921678420
0.00162861565308358
0.00162284353350501
0.00161713547845499
0.00161153505511299
0.00160604265828414
0.00160060601861074
0.00159527422728789
0.00158948632286087
0.00158317658063577
0.00157699583648650
0.00157093263129928
0.00156493932689728
0.00155905902603453
0.00155329263943687
0.00154759492495835
0.00154199933476395
0.00153651086873213
0.00153108206553716
0.00152575268338118
0.00151988630215986
0.00151354204833194
0.00150732686058307
0.00150122911906973
0.00149520671184675
0.00148929708944318
0.00148350611033222
0.00147777606124730
0.00147215604799792
0.00146664307073728
0.00146119056135156
0.00145583709656598
0.00145058523606590
0.00144442095443519
0.00143811451607184
0.00143193123187607
0.00142582608480806
0.00141983955807622
0.00141396876285109
0.00140816581317110
0.00140247322110891
0.00139688970871371
0.00139136822287793
0.00138595129176850
0.00138063648978624
0.00137537841628585
0.00137008148769882
0.00136374248311873
0.00135747653533070
0.00135133740512864
0.00134531786453707
0.00133937417924010
0.00133354474661794
0.00132782679883999
0.00132217490561102
0.00131663447325182
0.00131119859742562
0.00130582302535581
0.00130054764516363
0.00129537105788679
0.00129025008631092
0.00128475758568595
0.00127849014499646
0.00127230115789380
0.00126623765669692
0.00126029590921851
0.00125442551087201
0.00124866775874412
0.00124302925689416
0.00123745105394986
0.00123197838706745
0.00122661777934235
0.00122131240275517
0.00121611049295197
0.00121100475040581
0.00120595455218404
0.00120100174905172
0.00119567475764371
0.00118945395164364
0.00118335983460787
0.00117738911979052
0.00117149177730541
0.00116571332039383
0.00116004960706078
0.00115445425574556
0.00114897454809073
0.00114359232481218
0.00113827730242177
0.00113306604092330
0.00112795604431155
0.00112289856369938
0.00111793810710983
0.00111307290988342
0.00110826045294029
0.00110353476981368
0.00109807287007925
0.00109248327979754
0.00108700302043482
0.00108163458864407
0.00107633047163764
0.00107112859756916
0.00106602592406657
0.00106098797173647
0.00105604033834336
0.00105089252046688
0.00104535678022055
0.00103992586822457
0.00103460983539135
0.00102935870413405
0.00102421127498746
0.00101915974748280
0.00101417310472029
0.00100928474337057
0.00100448554066713
0.000999370966986601
0.000993970999789371
0.000988682974689451
0.000983460536142995
0.000978339255751127
0.000973322669539017
0.000968371617625464
0.000963509672290924
0.000958751677902121
0.000954043005707397
0.000949394753431826
0.000944101595667392
0.000938869075652819
0.000933742526396447
0.000928724291125200
0.000923762551198567
0.000918904751353074
0.000914149440196040
0.000909444332765611
0.000904831140152505
0.000900308198543914
0.000895842904846441
0.000890693908307075
0.000885627115251380
0.000880619122198968
0.000875721439665220
0.000870918131057079
0.000866174806668507
0.000861528287828901
0.000856976097226706
0.000852478813799589
0.000848072039458648
0.000843753516649336
0.000839321446571240
0.000834315521946079
0.000829418783425108
0.000824586477240537
0.000819850445774917
0.000815216186113907
0.000810640142801045
0.000806161547297105
0.000801763704385383
0.000797426893860551
0.000793179958570942
0.000789009458154640
0.000784893989292027
0.000780316217614141
0.000775524979033965
0.000770798051711904
0.000766177064946476
0.000761647954117050
0.000757180212895312
0.000752806425041950
0.000748521418906907
0.000744291230735688
0.000740146726538667
0.000736086349373566
0.000732074907800567
0.000728144168908942
0.000724134552408615
0.000719444736358366
0.000714858959146955
0.000710372058083417
0.000705946552187405
0.000701615443474768
0.000697376142514155
0.000693192798862300
0.000689097234674066
0.000685086428432452
0.000681126724040864
0.000677247518212077
0.000673448035285750
0.000669694018710982
0.000666016468565430
0.000661782373702562
0.000657315599518798
0.000652947969749590
0.000648676620998301
0.000644466002902258
0.000640345703877880
0.000636314656205263
0.000632338901865190
0.000628446955633819
0.000624636543811695
0.000620876599623736
0.000617193953032554
0.000613587910000277
0.000610028005339248
0.000606539498150826
0.000603121210649306
0.000599103534453058
0.000595155014940793
0.000591292979122885
0.000587483579404183
0.000583756723219201
0.000580109407273347
0.000576510698457656
0.000572988008564851
0.000569249353055180
0.000565368829815767
0.000561574570854297
0.000557864833147703
0.000554206287008384
0.000550626908414773
0.000547125200655768
0.000543670048173971
0.000540288404132175
0.000536570582918175
0.000532823218697008
0.000529161622944469
0.000525580995675931
0.000522052192452282
0.000518599793323803
0.000515223089712220
0.000511892094404302
0.000508632656767772
0.000505122881602961
0.000501480713187543
0.000497921668952743
0.000494444031973707
0.000491016561227162
0.000487665836603680
0.000484388890079915
0.000481158904663170
0.000477998522669763
0.000474906501570598
0.000471356000588887
0.000467868332729409
0.000464462077553076
0.000461108275033697
0.000457830265091016
0.000454626550576756
0.000451468869626592
0.000448382662380710
0.000445364396510857
0.000442387868436285
0.000439061792782949
0.000435692211741819
0.000432376138652073
0.000429138527064319
0.000425976154739552
0.000422861293948933
0.000419818683854466
0.000416845394906369
0.000413915052780738
0.000411049969498978
0.000408248965277033
0.000404936681012467
0.000401697476962181
0.000398537726928433
0.000395428244189779
0.000392393238719968
0.000389429578363366
0.000386512737765863
0.000383662070366989
0.000380877820632111
0.000378134451587916
0.000375454246959983
0.000372510213939145
0.000369357351622472
0.000366282432342407
0.000363282867603530
0.000360334988685112
0.000357457517997580
0.000354650569408987
0.000351887029096039
0.000349189587202987
0.000346556168035168
0.000343961817658643
0.000341427561790154
0.000338721177051308
0.000335680839349802
0.000332718062188245
0.000329831016734925
0.000326994542811872
0.000324229494579799
0.000321532661663787
0.000318881943081651
0.000316294904060531
0.000313771030060873
0.000311287878456287
0.000308863810064258
0.000306496235642669
0.000304009703786874
0.000301302078005797
0.000298663576344045
0.000296071476462220
0.000293545359141401
0.000291081415577668
0.000288659808887889
0.000286138545609395
0.000283517632862666
0.000280945627676524
0.000278440002367375
0.000275998446324599
0.000273600582491205
0.000271262332175959
0.000268862393904042
0.000266294561051256
0.000263796755354602
0.000261364757716108
0.000258977549798860
0.000256651439276892
0.000254385870370849
0.000252160277487803
0.000249665699430756
0.000247223741001105
0.000244830160804065
0.000242500837365591
0.000240232616122555
0.000238008232410577
0.000235840451882317
0.000233645389857303
0.000231221620671228
0.000228865730982501
0.000226576796434541
0.000224332423299817
0.000222149945920174
0.000220025463448808
0.000217942840283890
0.000215840062821579
0.000213502174246242
0.000211212488269190
0.000208989947711739
0.000206830206096381
0.000204715314233768
0.000202658291888885
0.000200659314488318
0.000198697712890176
0.000196482369784295
0.000194255139615735
0.000192077395225572
0.000189963619266808
0.000187912874542431
0.000185904720657077
0.000183953760121497
0.000182059315237691
0.000180201599150897
0.000177990979807175
0.000175850216819055
0.000173758661811397
0.000171730843361518
0.000169765730089622
0.000167844354623649
0.000165979630779610
0.000164170032346922
0.000162398042327313
0.000160342676344658
0.000158257229100857
0.000156224955466635
0.000154257731914840
0.000152352646560304
0.000150493727168293
0.000148692240551065
0.000146946508511987
0.000145239487919063
0.000143563598858130
0.000141647387047015
0.000139779309332897
0.000137973450425431
0.000136225305667183
0.000134516345410890
0.000132632539651203
0.000130813741138269
0.000129043392498692
0.000127331026617987
0.000125676360499974
0.000123861830237349
0.000122070453587840
0.000120342700533083
0.000118661440815843
0.000117036827495054
0.000115342503309158
0.000113570045873732
0.000111861953125691
0.000110215752295487
0.000108615379127597
0.000107070030050296
0.000105318064693341
0.000103620053867590
0.000101987029405104
0.000100413038091596
9.88862970841311e-05
9.73162551483518e-05
9.56289280467933e-05
9.39953843402424e-05
9.24264534347185e-05
9.09185221397042e-05
8.94572511538812e-05
8.78968258861677e-05
8.62606729296488e-05
8.46825804388806e-05
8.31686557638171e-05
8.17159798075787e-05
8.03109163684286e-05
7.88035582039100e-05
7.72069977612541e-05
7.56704087601342e-05
7.42012893569678e-05
7.27946227851319e-05
7.14373152957178e-05
7.01028292978778e-05
6.87442686323153e-05
6.74332465847424e-05
6.61768656849164e-05
6.49725964819974e-05
6.38077528368744e-05
6.26890859026406e-05
6.09598257634125e-05
5.92094237853348e-05
5.75605719712735e-05
5.60610637444875e-05
5.46737290000124e-05
5.33571734655750e-05
5.20671604255991e-05
5.06808815301742e-05
4.93685907064954e-05
4.81254016261369e-05
4.67802140819193e-05
4.54665466886623e-05
4.42263939652431e-05
4.29795046358875e-05
4.16571882103072e-05
4.04132687592272e-05
3.92319529944506e-05
3.79506246527089e-05
3.66949972580922e-05
3.55081353155874e-05
3.43618634738596e-05
3.30828262571064e-05
3.18816893821380e-05
3.07590374522765e-05
2.95957863771670e-05
2.83672871604616e-05
2.72271415910592e-05
2.61662395834653e-05
2.51033605036098e-05
2.40841409588973e-05
2.31346553630205e-05
2.22412396138895e-05
2.09084239431766e-05
1.96144013616118e-05
1.84976686849475e-05
1.74856082328175e-05
1.64252023465268e-05
1.54411567054872e-05
1.44052907094206e-05
1.34593440896287e-05
1.24565550973939e-05
1.15430583639399e-05
1.05866754985787e-05
9.71081625941557e-06
8.80417873204494e-06
7.97871723597582e-06
7.13290947416133e-06
6.35915079518493e-06
5.66095750933102e-06
5.03315265552705e-06
4.30611584592305e-06
3.58930132650766e-06
3.00374861263269e-06
2.47101052765733e-06
1.99308541259969e-06
1.56903636369019e-06
1.20321603817774e-06
8.93272734422537e-07
6.38447924070611e-07
4.54478956702119e-07
2.85255815093581e-07
1.74302467760611e-07

//wedge1
0.00197831419346301
0.00197832389443705
0.00197833361510537
0.00197834341632234
0.00197835333868009
0.00197836326038576
0.00197837326262756
0.00197838340622632
0.00197839352888049
0.00197840375229164
0.00197841409674172
0.00197842444050499
0.00197843488495555
0.00197844545041147
0.00197845601513054
0.00197846668050678
0.00197847748708638
0.00197848827262408
0.00197849915878776
0.00197851018607410
0.00197852119235266
0.00197853233975733
0.00197854358758629
0.00197855483460291
0.00197856620229682
0.00197857771112485
0.00197858919882326
0.00197860080733950
0.00197861253644370
0.00197862428493885
0.00197863613370953
0.00197864812347823
0.00197866233173806
0.00197870383692281
0.00197874581853067
0.00197878772007120
0.00197883016703023
0.00197887295012298
0.00197891579226946
0.00197895904024735
0.00197900276240988
0.00197904647378215
0.00197909058955520
0.00197913524870741
0.00197917982731944
0.00197922494810263
0.00197927047215245
0.00197931605372065
0.00197936203879394
0.00197940849555022
0.00197945500928124
0.00197950199416022
0.00197954945049822
0.00197959689341362
0.00197964480727927
0.00197969326078479
0.00197974170032228
0.00197979060917521
0.00197984005665893
0.00197992349121676
0.00198001996957676
0.00198011760061488
0.00198021505172527
0.00198031352158681
0.00198041300735942
0.00198051244460383
0.00198061289575490
0.00198071449217728
0.00198081590512031
0.00198091832972248
0.00198102189446457
0.00198112540786627
0.00198122992782456
0.00198133545274814
0.00198144092295089
0.00198154752836426
0.00198165526848287
0.00198176295019271
0.00198187163203041
0.00198198144309897
0.00198209119481823
0.00198223754157353
0.00198241472472023
0.00198259177049801
0.00198277075942985
0.00198295127062693
0.00198313164115984
0.00198331394245187
0.00198349796627292
0.00198368183949152
0.00198386763681229
0.00198405514420141
0.00198424249513040
0.00198443175917691
0.00198462272275123
0.00198481373237651
0.00198500643534478
0.00198520123920655
0.00198539587601278
0.00198559219501917
0.00198582308045791
0.00198610447050527
0.00198638845151408
0.00198667530484306
0.00198696182847314
0.00198725092369303
0.00198754286491667
0.00198783446405441
0.00198812889837035
0.00198842586848882
0.00198872277237180
0.00198902248686041
0.00198932471347703
0.00198962685661486
0.00198993178835012
0.00199023978144611
0.00199054710551388
0.00199090906364073
0.00199132195236558
0.00199173382700034
0.00199214993240635
0.00199256950232898
0.00199298841132159
0.00199341113890592
0.00199383803040101
0.00199426386412128
0.00199469383516667
0.00199512718766280
0.00199556020187503
0.00199599729000263
0.00199643810913899
0.00199687819342614
0.00199737355351034
0.00199793329087784
0.00199849186319340
0.00199905525482784
0.00199962343322983
0.00200019045485512
0.00200076267578582
0.00200133960759409
0.00200191534306738
0.00200249619891588
0.00200308168927068
0.00200366589879954
0.00200425564235288
0.00200484989697745
0.00200554669187025
0.00200626537289860
0.00200699021757927
0.00200771324215227
0.00200844241724028
0.00200917710668365
0.00200991050021830
0.00201064939688696
0.00201139421981337
0.00201213715869000
0.00201288647987281
0.00201364113496772
0.00201445151809294
0.00201533688021232
0.00201622923241368
0.00201711888031615
0.00201801476651806
0.00201891813600969
0.00201981872140601
0.00202072538336227
0.00202163988738022
0.00202255099397149
0.00202346919214040
0.00202440094195109
0.00202545006446806
0.00202650741576918
0.00202757150122017
0.00202863183134540
0.00202970016213026
0.00203077566742014
0.00203184724805711
0.00203292594965287
0.00203401296424433
0.00203509530408615
0.00203624812574633
0.00203747131606532
0.00203868874291561
0.00203991449012667
0.00204114849271185
0.00204237668894086
0.00204361361379089
0.00204485780561696
0.00204609670185879
0.00204734409566140
0.00204867967090405
0.00205004552742827
0.00205141974314815
0.00205280148945334
0.00205417672599464
0.00205555997686784
0.00205695180727914
0.00205833625837026
0.00205972917044428
0.00206118381515312
0.00206268123297394
0.00206418591469014
0.00206569927293717
0.00206720376287802
0.00206871670973732
0.00207023783685183
0.00207175003228927
0.00207327026819836
0.00207487585517830
0.00207648057132459
0.00207809191010461
0.00207971119079091
0.00208132071568853
0.00208293801301370
0.00208456195923093
0.00208617689853972
0.00208784153429268
0.00208952394808064
0.00209119611833885
0.00209287450968402
0.00209455978291486
0.00209623384007339
0.00209791452696005
0.00209960368548819
0.00210129251247831
0.00210298745569419
0.00210468753777092
0.00210637605453828
0.00210807024650537
0.00210976971916893
0.00211145686148818
0.00211313570962665
0.00211481596798469
0.00211648378484408
0.00211815549021332
0.00211983270050670
0.00212149609836214
0.00212316480425122
0.00212479799293482
0.00212641496791936
0.00212803517058263
0.00212965902664342
0.00213126917216397
0.00213288334046036
0.00213447415075258
0.00213599921959183
0.00213752639344708
0.00213905637481527
0.00214057199185707
0.00214209031015768
0.00214360670081547
0.00214498703502963
0.00214636817758991
0.00214775092332478
0.00214912020986331
0.00215049048626386
0.00215186190416022
0.00215303415631424
0.00215420609717092
0.00215537888061817
0.00215653909909162
0.00215769962803692
0.00215880578267081
0.00215970187946388
0.00216059775498409
0.00216149322651882
0.00216237914806505
0.00216326428965691
0.00216393693649145
0.00216449318863503
0.00216504864811488
0.00216560360307207
0.00216615205018594
0.00216657678806091
0.00216673209166311
0.00216688544214990
0.00216703595735738
0.00216718362477132
0.00216731041068580
0.00216701605555547
0.00216672765055916
0.00216644273421828
0.00216616343896876
0.00216588962532183
0.00216531199245772
0.00216457013923065
0.00216384335297772
0.00216312523991823
0.00216242113287335
0.00216169683711343
0.00216048960051648
0.00215930633710654
0.00215814652418139
0.00215700043078175
0.00215587678215588
0.00215458964940889
0.00215293735195747
0.00215131759090162
0.00214972955990965
0.00214816067296902
0.00214662167312585
0.00214486627813183
0.00214277310516156
0.00214072083579809
0.00213870896122114
0.00213672055234172
0.00213477040216946
0.00213266843929369
0.00213013607452909
0.00212765439021876
0.00212522044511380
0.00212281554483640
0.00212045642552708
0.00211814302618874
0.00211519051010930
0.00211227898800336
0.00210942410744139
0.00210660218849238
0.00210383576417991
0.00210112142099968
0.00209812040515231
0.00209477769781189
0.00209149973976726
0.00208826078695073
0.00208508392224452
0.00208196766495109
0.00207888624041965
0.00207536073369786
0.00207165541606842
0.00206799292040990
0.00206440040204974
0.00206087877617272
0.00205739523290129
0.00205397725226871
0.00205012222525329
0.00204602844711126
0.00204201407138208
0.00203807701692991
0.00203418462740972
0.00203036661287039
0.00202662138424754
0.00202263539891836
0.00201818540162490
0.00201382110373608
0.00200950856949107
0.00200527636167884
0.00200112663243947
0.00199702080110873
0.00199299440230183
0.00198840705187438
0.00198365361473181
0.00197899298646542
0.00197442272216671
0.00196990191423425
0.00196546829108890
0.00196111758431110
0.00195681437534218
0.00195185441029015
0.00194683935759193
0.00194188174463201
0.00193701981794491
0.00193224901830528
0.00192753336703296
0.00192290517250290
0.00191836507526291
0.00191334867927220
0.00190802940610454
0.00190281233721463
0.00189765452104518
0.00189259525785675
0.00188763222307264
0.00188272374272232
0.00187790548132810
0.00187317996499507
0.00186762257099102
0.00186209557429732
0.00185667414208309
0.00185131438161675
0.00184605863312258
0.00184089927217429
0.00183579916229865
0.00183079449116679
0.00182588018083840
0.00182016939285578
0.00181442562161153
0.00180879358027005
0.00180322578934333
0.00179776544650752
0.00179240734401060
0.00178710812492690
0.00178191025746283
0.00177680566673388
0.00177140945320111
0.00176543714598815
0.00175958061705733
0.00175378820641796
0.00174811044606559
0.00174253876827287
0.00173703175031359
0.00173162648226883
0.00172632375359609
0.00172107484904538
0.00171559498494565
0.00170949086984322
0.00170345419158840
0.00169753737159114
0.00169173008679431
0.00168599209033214
0.00168036286405699
0.00167484054551980
0.00166937471889185
0.00166401494406336
0.00165875215705252
0.00165275937967851
0.00164656854030270
0.00164050080733226
0.00163449921678420
0.00162861565308358
0.00162284353350501
0.00161713547845499
0.00161153505511299
0.00160604265828414
0.00160060601861074
0.00159527422728789
0.00158948632286087
0.00158317658063577
0.00157699583648650
0.00157093263129928
0.00156493932689728
0.00155905902603453
0.00155329263943687
0.00154759492495835
0.00154199933476395
0.00153651086873213
0.00153108206553716
0.00152575268338118
0.00151988630215986
0.00151354204833194
0.00150732686058307
0.00150122911906973
0.00149520671184675
0.00148929708944318
0.00148350611033222
0.00147777606124730
0.00147215604799792
0.00146664307073728
0.00146119056135156
0.00145583709656598
0.00145058523606590
0.00144442095443519
0.00143811451607184
0.00143193123187607
0.00142582608480806
0.00141983955807622
0.00141396876285109
0.00140816581317110
0.00140247322110891
0.00139688970871371
0.00139136822287793
0.00138595129176850
0.00138063648978624
0.00137537841628585
0.00137008148769882
0.00136374248311873
0.00135747653533070
0.00135133740512864
0.00134531786453707
0.00133937417924010
0.00133354474661794
0.00132782679883999
0.00132217490561102
0.00131663447325182
0.00131119859742562
0.00130582302535581
0.00130054764516363
0.00129537105788679
0.00129025008631092
0.00128475758568595
0.00127849014499646
0.00127230115789380
0.00126623765669692
0.00126029590921851
0.00125442551087201
0.00124866775874412
0.00124302925689416
0.00123745105394986
0.00123197838706745
0.00122661777934235
0.00122131240275517
0.00121611049295197
0.00121100475040581
0.00120595455218404
0.00120100174905172
0.00119567475764371
0.00118945395164364
0.00118335983460787
0.00117738911979052
0.00117149177730541
0.00116571332039383
0.00116004960706078
0.00115445425574556
0.00114897454809073
0.00114359232481218
0.00113827730242177
0.00113306604092330
0.00112795604431155
0.00112289856369938
0.00111793810710983
0.00111307290988342
0.00110826045294029
0.00110353476981368
0.00109807287007925
0.00109248327979754
0.00108700302043482
0.00108163458864407
0.00107633047163764
0.00107112859756916
0.00106602592406657
0.00106098797173647
0.00105604033834336
0.00105089252046688
0.00104535678022055
0.00103992586822457
0.00103460983539135
0.00102935870413405
0.00102421127498746
0.00101915974748280
0.00101417310472029
0.00100928474337057
0.00100448554066713
0.000999370966986601
0.000993970999789371
0.000988682974689451
0.000983460536142995
0.000978339255751127
0.000973322669539017
0.000968371617625464
0.000963509672290924
0.000958751677902121
0.000954043005707397