/*--------------------------------*- C++ -*----------------------------------*\
  =========                 |
  \\      /  F ield         | OpenFOAM: The Open Source CFD Toolbox
   \\    /   O peration     | Website:  https://openfoam.org
    \\  /    A nd           | Version:  6
     \\/     M anipulation  |
\*---------------------------------------------------------------------------*/
FoamFile
{
    version     2.0;
    format      ascii;
    class       volVectorField;
    object      U;
}
// * * * * * * * * * * * * * * * * * * * * * * * * * * * * * * * * * * * * * //

dimensions      [0 1 -1 0 0 0 0];

internalField   uniform (0 0 0);

boundaryField
{
    inlet
    {
        type            timeVaryingMappedFixedValue;
        offset          (0 0 0);
        setAverage      off;
    }

    outlet
    {
        type            zeroGradient;
    }

    pipe
    {
        type            fixedValue; //uniformFixedValue; //noSlip;
        value           uniform (0 0 0);
    }

    BoR
    {
        type            fixedValue; //uniformFixedValue; //noSlip;
        value           uniform (0 0 0);
    }

    wedge0
    {
        type            wedge;
    }

    wedge1
    {
        type            wedge;
    }
}

// ************************************************************************* //
