/*--------------------------------*- C++ -*----------------------------------*\
  =========                 |
  \\      /  F ield         | OpenFOAM: The Open Source CFD Toolbox
   \\    /   O peration     | Website:  https://openfoam.org
    \\  /    A nd           | Version:  6
     \\/     M anipulation  |
\*---------------------------------------------------------------------------*/
FoamFile
{
    version     2.0;
    format      ascii;
    class       volScalarField;
    location    "0";
    object      omega;
}
// * * * * * * * * * * * * * * * * * * * * * * * * * * * * * * * * * * * * * //

dimensions      [0 0 -1 0 0 0 0];

internalField   uniform 5;

boundaryField
{
    inlet
    {
        type            timeVaryingMappedFixedValue;
        setAverage      0;
        offset          0;
    }
    outlet
    {
        type            zeroGradient;
    }
    pipe
    {
        type            fixedValue;
        value           uniform 9.6255e05;
    }
    BoR
    {
        type            fixedValue;
        value           uniform 9.6255e05;
    }
    wedge0
    {
        type            wedge;
    }

    wedge1
    {
        type            wedge;
    }
}


// ************************************************************************* //
