/*--------------------------------*- C++ -*----------------------------------*\
  =========                 |
  \\      /  F ield         | OpenFOAM: The Open Source CFD Toolbox
   \\    /   O peration     | Website:  https://openfoam.org
    \\  /    A nd           | Version:  6
     \\/     M anipulation  |
\*---------------------------------------------------------------------------*/
FoamFile
{
    version     2.0;
    format      ascii;
    class       dictionary;
    location    "constant";
    object      turbulenceProperties;
}
// * * * * * * * * * * * * * * * * * * * * * * * * * * * * * * * * * * * * * //

simulationType RAS;

RAS
{                      
    RASModel            kOmegaSST_BOR_frozen_R_OF7; 
    turbulence          on;
    printCoeffs         on;

    kOmegaSST_BOR_frozen_R_OF7Coeffs 
    {
        model           Tr.aijx.RijHat.squCyl.region_Ha5.newfrozenAppr.b.cube;
        aijx_term       "1.0"; // 2.0 ON and 1.0 OFF
        Rterm_corr      "2.0";
    };

}

// ************************************************************************* //
