/*--------------------------------*- C++ -*----------------------------------*\
  =========                 |
  \\      /  F ield         | OpenFOAM: The Open Source CFD Toolbox
   \\    /   O peration     | Website:  https://openfoam.org
    \\  /    A nd           | Version:  6
     \\/     M anipulation  |
\*---------------------------------------------------------------------------*/
FoamFile
{
    version     2.0;
    format      binary;
    class       polyBoundaryMesh;
    location    "constant/polyMesh";
    object      boundary;
}
// * * * * * * * * * * * * * * * * * * * * * * * * * * * * * * * * * * * * * //

9
(
    inlet
    {
        type            patch;
        nFaces          0;
        startFace       2969;
    }
    outlet
    {
        type            patch;
        nFaces          0;
        startFace       2969;
    }
    wedge0
    {
        type            wedge;
        inGroups        1(wedge);
        nFaces          1529;
        startFace       2969;
    }
    wedge1
    {
        type            wedge;
        inGroups        1(wedge);
        nFaces          1529;
        startFace       4498;
    }
    pipe
    {
        type            wall;
        inGroups        1(wall);
        nFaces          24;
        startFace       6027;
    }
    BoR
    {
        type            wall;
        inGroups        1(wall);
        nFaces          24;
        startFace       6051;
    }
    defaultFaces
    {
        type            empty;
        inGroups        1(empty);
        nFaces          0;
        startFace       6075;
    }
    procBoundary4to3
    {
        type            processor;
        inGroups        1(processor);
        nFaces          65;
        startFace       6075;
        matchTolerance  0.0001;
        transform       unknown;
        myProcNo        4;
        neighbProcNo    3;
    }
    procBoundary4to5
    {
        type            processor;
        inGroups        1(processor);
        nFaces          65;
        startFace       6140;
        matchTolerance  0.0001;
        transform       unknown;
        myProcNo        4;
        neighbProcNo    5;
    }
)

// ************************************************************************* //
