/*--------------------------------*- C++ -*----------------------------------*\
  =========                 |
  \\      /  F ield         | OpenFOAM: The Open Source CFD Toolbox
   \\    /   O peration     | Website:  https://openfoam.org
    \\  /    A nd           | Version:  6
     \\/     M anipulation  |
\*---------------------------------------------------------------------------*/
FoamFile
{
    version     2.0;
    format      binary;
    class       polyBoundaryMesh;
    location    "constant/polyMesh";
    object      boundary;
}
// * * * * * * * * * * * * * * * * * * * * * * * * * * * * * * * * * * * * * //

7
(
    inlet
    {
        type            patch;
        nFaces          190;
        startFace       272311;
    }
    outlet
    {
        type            patch;
        nFaces          190;
        startFace       272501;
    }
    wedge0
    {
        type            wedge;
        inGroups        1(wedge);
        nFaces          136610;
        startFace       272691;
    }
    wedge1
    {
        type            wedge;
        inGroups        1(wedge);
        nFaces          136610;
        startFace       409301;
    }
    pipe
    {
        type            wall;
        inGroups        1(wall);
        nFaces          719;
        startFace       545911;
    }
    BoR
    {
        type            wall;
        inGroups        1(wall);
        nFaces          380;
        startFace       546630;
    }
    defaultFaces
    {
        type            empty;
        inGroups        1(empty);
        nFaces          0;
        startFace       547010;
    }
)

// ************************************************************************* //
