/*--------------------------------*- C++ -*----------------------------------*\
  =========                 |
  \\      /  F ield         | OpenFOAM: The Open Source CFD Toolbox
   \\    /   O peration     | Website:  https://openfoam.org
    \\  /    A nd           | Version:  6
     \\/     M anipulation  |
\*---------------------------------------------------------------------------*/
FoamFile
{
    version     2.0;
    format      binary;
    class       polyBoundaryMesh;
    location    "constant/polyMesh";
    object      boundary;
}
// * * * * * * * * * * * * * * * * * * * * * * * * * * * * * * * * * * * * * //

7
(
    inlet
    {
        type            patch;
        nFaces          95;
        startFace       67756;
    }
    outlet
    {
        type            patch;
        nFaces          95;
        startFace       67851;
    }
    wedge0
    {
        type            wedge;
        inGroups        1(wedge);
        nFaces          34105;
        startFace       67946;
    }
    wedge1
    {
        type            wedge;
        inGroups        1(wedge);
        nFaces          34105;
        startFace       102051;
    }
    pipe
    {
        type            wall;
        inGroups        1(wall);
        nFaces          359;
        startFace       136156;
    }
    BoR
    {
        type            wall;
        inGroups        1(wall);
        nFaces          190;
        startFace       136515;
    }
    defaultFaces
    {
        type            empty;
        inGroups        1(empty);
        nFaces          0;
        startFace       136705;
    }
)

// ************************************************************************* //
