/*--------------------------------*- C++ -*----------------------------------*\
| =========                 |                                                 |
| \\      /  F ield         | OpenFOAM: The Open Source CFD Toolbox           |
|  \\    /   O peration     | Version:  2.2.0                                 |
|   \\  /    A nd           | Web:      www.OpenFOAM.org                      |
|    \\/     M anipulation  |                                                 |
\*---------------------------------------------------------------------------*/
FoamFile
{
    version     2.0;
    format      ascii;
    class       dictionary;
    object      sampleDict;
}
// * * * * * * * * * * * * * * * * * * * * * * * * * * * * * * * * * * * * //

libs ("libsampling.so");

type sets;

//setFormat raw;
setFormat csv;

formatOptions
{
    ensight
    {
        format  ascii;
    }
}

interpolationScheme cellPoint;

fields (U R);

sets
(
//    // BOW
//    XoR-0.1
//    {
//        type        face;
//        axis        y;
//        start       (-0.1  0.0 0);
//        end         (-0.1  1. 0);
//        //nPoints     98;
//    }
//    XoR0.0
//    {
//        type        face;
//        axis        y;
//        start       (0.  0.0 0); 
//        end         (0.  1. 0); 
//        //nPoints     87;
//    }
//    XoR0.1
//    {
//        type        face;
//        axis        y;
//        start       (0.1  0.0 0); 
//        end         (0.1  1. 0); 
//        //nPoints     94;
//    }
//    XoR0.2
//    {
//        type        face;
//        axis        y;
//        start       (0.2  0.0 0);
//        end         (0.2  1. 0);
//        //nPoints     96;
//    }
//    XoR0.3
//    {
//        type        face;
//        axis        y;
//        start       (0.3  0.0 0);
//        end         (0.3  1. 0);
//        //nPoints     98;
//    }
//    XoR0.4
//    {
//        type        face;
//        axis        y;
//        start       (0.4  0.0 0); 
//        end         (0.4  1. 0); 
//        //nPoints     98;
//    }
//    XoR0.5
//    {
//        type        face;
//        axis        y;
//        start       (0.5  0.0 0);
//        end         (0.5  1. 0);
//        //nPoints     98;
//    }
//    XoR0.6
//    {
//        type        face;
//        axis        y;
//        start       (0.6  0.0 0);
//        end         (0.6  1. 0);
//        //nPoints     98;
//    }
//    XoR0.7
//    {
//        type        face;
//        axis        y;
//        start       (0.7  0.0 0);
//        end         (0.7  1. 0);
//        //nPoints     98;
//    }
//    XoR0.8
//    {
//        type        face;
//        axis        y;
//        start       (0.8  0.0 0); 
//        end         (0.8  1. 0); 
//        //nPoints     98;
//    }
//    XoR0.9
//    {
//        type        face;
//        axis        y;
//        start       (0.9  0.0 0);
//        end         (0.9  1. 0);
//        //nPoints     98;
//    }
//    XoR1.0
//    {
//        type        face;
//        axis        y;
//        start       (1.0  0.0 0);
//        end         (1.0  1. 0);
//        //nPoints     98;
//    }
//    XoR1.1
//    {
//        type        face;
//        axis        y;
//        start       (1.1  0.0 0);
//        end         (1.1  1. 0);
//        //nPoints     98;
//    }


     // WAKE
    XoR12.9167
    {
        type        face;
        axis        y;
        start       (12.9167 0.0 0.0);
        end         (12.9167 1.0 0.0);
        //nPoints     93;
    }
    XoR13.17
    {
        type        face;
        axis        y;
        start       (13.1667 0.0 0.0);
        end         (13.1667 1.0 0.0);
        //nPoints     93;
    }
    XoR13.4167
    {
        type        face;
        axis        y;
        start       (13.4167 0.0 0.0);
        end         (13.4167 1.0 0.0);
        //nPoints     93;
    }
    XoR13.67
    {
        type        face;
        axis        y;
        start       (13.6667 0.0 0.0);
        end         (13.6667 1.0 0.0);
        //nPoints     93;
    }
    XoR13.9167
    {
        type        face;
        axis        y;
        start       (13.9167 0.0 0.0);
        end         (13.9167 1.0 0.0);
        //nPoints     93;
    }
    XoR14.17
    {
        type        face;
        axis        y;
        start       (14.1667 0.0 0.0);
        end         (14.1667 1.0 0.0);
        //nPoints     93;
    }
    XoR14.4167
    {
        type        face;
        axis        y;
        start       (14.4167 0.0 0.0);
        end         (14.4167 1.0 0.0);
        //nPoints     93;
    }
    XoR14.67
    {
        type        face;
        axis        y;
        start       (14.6667 0.0 0.0);
        end         (14.6667 1.0 0.0);
        //nPoints     93;
    }
    XoR14.9167
    {
        type        face;
        axis        y;
        start       (14.9167 0.0 0.0);
        end         (14.9167 1.0 0.0);
        //nPoints     93;
    }
    XoR15.17
    {
        type        face;
        axis        y;
        start       (15.1667 0.0 0.0);
        end         (15.1667 1.0 0.0);
        //nPoints     93;
    }
    XoR15.4167
    {
        type        face;
        axis        y;
        start       (15.4167 0.0 0.0);
        end         (15.4167 1.0 0.0);
        //nPoints     93;
    }
    XoR15.67
    {
        type        face;
        axis        y;
        start       (15.6667 0.0 0.0);
        end         (15.6667 1.0 0.0);
        //nPoints     93;
    }
    XoR15.9167
    {
        type        face;
        axis        y;
        start       (15.9167 0.0 0.0);
        end         (15.9167 1.0 0.0);
        //nPoints     93;
    }
    XoR16.17
    {
        type        face;
        axis        y;
        start       (16.1667 0.0 0.0);
        end         (16.1667 1.0 0.0);
        //nPoints     93;
    }
    XoR16.4167
    {
        type        face;
        axis        y;
        start       (16.4167 0.0 0.0);
        end         (16.4167 1.0 0.0);
        //nPoints     93;
    }
    
);

// *********************************************************************** //
