/*--------------------------------*- C++ -*----------------------------------*\
  =========                 |
  \\      /  F ield         | OpenFOAM: The Open Source CFD Toolbox
   \\    /   O peration     | Website:  https://openfoam.org
    \\  /    A nd           | Version:  6
     \\/     M anipulation  |
\*---------------------------------------------------------------------------*/
FoamFile
{
    version     2.0;
    format      binary;
    class       polyBoundaryMesh;
    location    "constant/polyMesh";
    object      boundary;
}
// * * * * * * * * * * * * * * * * * * * * * * * * * * * * * * * * * * * * * //

8
(
    inlet
    {
        type            patch;
        nFaces          64;
        startFace       2969;
    }
    outlet
    {
        type            patch;
        nFaces          0;
        startFace       3033;
    }
    wedge0
    {
        type            wedge;
        inGroups        1(wedge);
        nFaces          1529;
        startFace       3033;
    }
    wedge1
    {
        type            wedge;
        inGroups        1(wedge);
        nFaces          1529;
        startFace       4562;
    }
    pipe
    {
        type            wall;
        inGroups        1(wall);
        nFaces          25;
        startFace       6091;
    }
    BoR
    {
        type            wall;
        inGroups        1(wall);
        nFaces          0;
        startFace       6116;
    }
    defaultFaces
    {
        type            empty;
        inGroups        1(empty);
        nFaces          0;
        startFace       6116;
    }
    procBoundary0to1
    {
        type            processor;
        inGroups        1(processor);
        nFaces          66;
        startFace       6116;
        matchTolerance  0.0001;
        transform       unknown;
        myProcNo        0;
        neighbProcNo    1;
    }
)

// ************************************************************************* //
