/*--------------------------------*- C++ -*----------------------------------*\
  =========                 |
  \\      /  F ield         | OpenFOAM: The Open Source CFD Toolbox
   \\    /   O peration     | Website:  https://openfoam.org
    \\  /    A nd           | Version:  6
     \\/     M anipulation  |
\*---------------------------------------------------------------------------*/
FoamFile
{
    version     2.0;
    format      ascii;
    class       volVectorField;
    location    "constant/polyMesh";
    object      C;
}
// * * * * * * * * * * * * * * * * * * * * * * * * * * * * * * * * * * * * * //

dimensions      [0 1 0 0 0 0 0];

internalField   nonuniform List<vector> 
15296
(
(-3.721730824 0.001324354771 -9.843838903e-22)
(-3.6225144 0.001316091022 -3.374575935e-20)
(-3.523297985 0.001307827273 3.629526986e-20)
(-3.424081577 0.001299563526 -2.839729187e-20)
(-3.324865178 0.001291299779 3.295029545e-20)
(-3.225648788 0.001283036032 -3.540601373e-20)
(-3.126432406 0.001274772287 3.166324864e-20)
(-3.027216034 0.001266508542 0)
(-2.927999671 0.001258244798 -1.753255547e-21)
(-2.828783317 0.001249981055 -1.105024549e-21)
(-2.729566972 0.001241717312 0)
(-2.630350638 0.00123345357 0)
(-2.531134313 0.00122518983 1.093389957e-21)
(-2.431917998 0.00121692609 2.388570194e-21)
(-2.332701694 0.00120866235 5.68165553e-23)
(-2.2334854 0.001200398612 -1.198207306e-21)
(-2.134269117 0.001192134875 2.486578525e-20)
(-2.035052845 0.001183871138 -4.614782917e-20)
(-1.935836585 0.001175607403 1.66384517e-20)
(-1.836620336 0.001167343668 0)
(-1.737404098 0.001159079935 -2.761367336e-20)
(-1.638187873 0.001150816202 2.539535197e-20)
(-1.538971659 0.001142552471 -5.51783714e-21)
(-1.439755459 0.00113428874 -4.745866085e-21)
(-1.340539271 0.001126025011 -1.418580839e-21)
(-1.241323096 0.001117761282 -2.045140701e-21)
(-1.142106934 0.001109497555 0)
(-1.042890786 0.001101233829 0)
(-0.9436746524 0.001092970104 5.895155762e-21)
(-0.8444585327 0.00108470638 3.782392165e-21)
(-0.7452424276 0.001076442658 -4.583996376e-21)
(-0.6460263375 0.001068178936 -2.383585353e-21)
(-0.5468102627 0.001059915216 8.735024874e-22)
(-0.4475942036 0.001051651498 0)
(-0.3483781605 0.00104338778 1.642886748e-21)
(-0.2491621338 0.001035124064 -8.057215405e-22)
(-0.1499461239 0.00102686035 -5.687815796e-23)
(-0.05073013123 0.001018596637 8.320842696e-22)
(-3.721748168 0.003090199556 1.302458784e-20)
(-3.622566467 0.003070917475 -6.287092221e-20)
(-3.523384774 0.003051635395 4.119360701e-21)
(-3.424203089 0.003032353317 -1.075626749e-19)
(-3.325021413 0.00301307124 -3.546416614e-20)
(-3.225839745 0.002993789166 -1.244685941e-19)
(-3.126658087 0.002974507093 -6.234266735e-20)
(-3.027476437 0.002955225021 -1.963279844e-21)
(-2.928294797 0.002935942952 -1.446112605e-20)
(-2.829113165 0.002916660884 -3.722176518e-20)
(-2.729931544 0.002897378818 -2.200545504e-19)
(-2.630749932 0.002878096755 2.899819084e-19)
(-2.53156833 0.002858814693 3.362004096e-21)
(-2.432386738 0.002839532633 -5.919463605e-20)
(-2.333205157 0.002820250575 -1.763818844e-19)
(-2.234023586 0.002800968519 -7.006119013e-21)
(-2.134842026 0.002781686465 3.019931335e-19)
(-2.035660476 0.002762404413 6.967822868e-20)
(-1.936478939 0.002743122363 -1.662864877e-19)
(-1.837297412 0.002723840316 -9.363156339e-20)
(-1.738115897 0.002704558271 -3.471742783e-19)
(-1.638934395 0.002685276228 -2.929734546e-19)
(-1.539752904 0.002665994188 -4.346444024e-21)
(-1.440571426 0.00264671215 -7.024907042e-22)
(-1.341389961 0.002627430115 -3.910948589e-21)
(-1.242208509 0.002608148082 -7.520685337e-20)
(-1.14302707 0.002588866052 -1.141427485e-19)
(-1.043845645 0.002569584024 -1.184674374e-20)
(-0.9446642335 0.002550301999 -1.123794728e-20)
(-0.8454828365 0.002531019977 1.002729386e-19)
(-0.7463014542 0.002511737958 8.174721233e-20)
(-0.6471200868 0.002492455941 -6.943474965e-21)
(-0.5479387346 0.002473173928 -1.280191805e-20)
(-0.4487573982 0.002453891918 2.281524964e-20)
(-0.3495760778 0.00243460991 4.245652869e-20)
(-0.2503947738 0.002415327906 4.442464285e-20)
(-0.1512134865 0.002396045906 3.927703872e-20)
(-0.05203221656 0.002376763908 -4.887473995e-21)
(-3.721767296 0.005032648617 -9.611026147e-21)
(-3.622623891 0.005001246371 -3.950689773e-21)
(-3.523480495 0.004969844127 -2.652908422e-20)
(-3.424337106 0.004938441886 -2.779941938e-20)
(-3.325193726 0.004907039647 7.318309858e-21)
(-3.226050355 0.004875637411 -3.923770236e-21)
(-3.126906992 0.004844235178 2.648089124e-20)
(-3.027763639 0.004812832948 1.305602821e-20)
(-2.928620295 0.00478143072 -2.78243684e-21)
(-2.82947696 0.004750028496 6.259706661e-19)
(-2.730333634 0.004718626274 -2.810743127e-19)
(-2.631190319 0.004687224056 -3.976914686e-19)
(-2.532047013 0.004655821841 2.23531022e-20)
(-2.432903717 0.004624419629 4.050256274e-19)
(-2.333760432 0.00459301742 2.742329136e-19)
(-2.234617158 0.004561615215 2.046052143e-21)
(-2.135473894 0.004530213013 1.714363785e-19)
(-2.036330641 0.004498810815 3.406478622e-19)
(-1.937187399 0.00446740862 2.514370141e-19)
(-1.838044169 0.004436006429 1.727976805e-19)
(-1.73890095 0.004404604241 1.306288028e-21)
(-1.639757744 0.004373202058 -1.914035617e-21)
(-1.54061455 0.004341799878 8.752889303e-21)
(-1.441471368 0.004310397702 -1.278885667e-19)
(-1.342328199 0.00427899553 -1.952230466e-19)
(-1.243185043 0.004247593362 2.893019404e-19)
(-1.144041901 0.004216191199 2.526929398e-19)
(-1.044898772 0.00418478904 -2.102039869e-20)
(-0.9457556566 0.004153386885 -2.887181181e-20)
(-0.846612556 0.004121984735 7.548192112e-20)
(-0.7474694699 0.004090582589 1.197737701e-19)
(-0.6483263988 0.004059180448 3.932390153e-21)
(-0.549183343 0.004027778312 -6.873542356e-20)
(-0.4500403028 0.003996376181 -1.9773742e-19)
(-0.3508972787 0.003964974055 -1.115427685e-19)
(-0.251754271 0.003933571935 -8.361835356e-20)
(-0.1526112801 0.003902169819 -7.618863875e-20)
(-0.05346830644 0.003870767709 2.522267909e-21)
(-3.721786709 0.007000325506 -4.120195582e-20)
(-3.62268217 0.00695664569 -1.130310594e-20)
(-3.523577639 0.006912965877 3.639202979e-20)
(-3.424473116 0.006869286068 -1.709171365e-20)
(-3.325368601 0.006825606262 -1.167718465e-20)
(-3.226264096 0.00678192646 1.345018297e-21)
(-3.127159599 0.006738246663 -3.253914204e-20)
(-3.028055111 0.006694566869 -2.426048354e-20)
(-2.928950632 0.006650887079 8.684971175e-20)
(-2.829846163 0.006607207293 3.166777988e-19)
(-2.730741703 0.006563527512 -3.812996069e-21)
(-2.631637253 0.006519847735 3.920996477e-20)
(-2.532532813 0.006476167962 2.210316201e-19)
(-2.433428383 0.006432488193 3.865716065e-19)
(-2.334323963 0.00638880843 -2.645416237e-20)
(-2.235219554 0.006345128671 7.263446176e-21)
(-2.136115156 0.006301448916 -6.163577614e-19)
(-2.037010769 0.006257769167 -4.296673107e-19)
(-1.937906393 0.006214089422 -6.973362667e-21)
(-1.838802028 0.006170409683 -1.580286614e-21)
(-1.739697676 0.006126729948 4.500390178e-20)
(-1.640593335 0.006083050219 -2.783034944e-20)
(-1.541489006 0.006039370496 3.809070425e-19)
(-1.44238469 0.005995690777 9.72328407e-19)
(-1.343280387 0.005952011065 3.177093667e-19)
(-1.244176096 0.005908331358 -6.393185849e-21)
(-1.145071819 0.005864651657 -2.940834257e-20)
(-1.045967556 0.005820971962 -1.126726522e-19)
(-0.9468633069 0.005777292274 -1.438090448e-19)
(-0.8477590719 0.005733612591 -1.724448541e-19)
(-0.7486548515 0.005689932915 1.053601027e-19)
(-0.6495506461 0.005646253246 3.27283512e-19)
(-0.550446456 0.005602573583 2.005858085e-19)
(-0.4513422815 0.005558893928 1.864559112e-19)
(-0.3522381231 0.005515214279 -8.833115726e-20)
(-0.2531339811 0.005471534637 -8.824011531e-20)
(-0.1540298559 0.005427855003 -1.760119284e-20)
(-0.05492574797 0.005384175377 -4.380742221e-20)
(-3.721806222 0.008976411597 -8.915703626e-21)
(-3.622740748 0.008920401742 -9.38787026e-20)
(-3.523675282 0.008864391892 2.26404474e-19)
(-3.424609825 0.008808382047 -4.42742545e-20)
(-3.325544376 0.008752372206 2.798519412e-19)
(-3.226478936 0.008696362371 -3.208553655e-19)
(-3.127413504 0.00864035254 -7.5672541e-21)
(-3.028348082 0.008584342714 -4.273676777e-20)
(-2.929282669 0.008528332894 -4.602122695e-19)
(-2.830217265 0.008472323079 -1.085811604e-19)
(-2.731151871 0.008416313269 4.745438624e-19)
(-2.632086486 0.008360303465 -7.656223364e-21)
(-2.533021112 0.008304293666 -6.469300132e-19)
(-2.433955747 0.008248283874 -3.510210127e-19)
(-2.334890393 0.008192274087 3.614145908e-20)
(-2.235825049 0.008136264306 -1.313718442e-20)
(-2.136759717 0.008080254531 4.214019391e-19)
(-2.037694395 0.008024244762 7.409883048e-19)
(-1.938629084 0.007968235 1.726667339e-20)
(-1.839563785 0.007912225244 2.565010584e-19)
(-1.740498498 0.007856215494 3.482867637e-19)
(-1.641433223 0.007800205752 4.414609365e-20)
(-1.54236796 0.007744196016 -9.48839051e-19)
(-1.443302709 0.007688186288 -4.646499377e-19)
(-1.344237471 0.007632176567 4.692071673e-19)
(-1.245172247 0.007576166853 9.290964924e-20)
(-1.146107035 0.007520157147 3.999870003e-20)
(-1.047041838 0.007464147448 2.7575746e-19)
(-0.9479766539 0.007408137757 2.400068388e-19)
(-0.8489114845 0.007352128075 1.478404584e-20)
(-0.7498463297 0.0072961184 -5.662867523e-19)
(-0.6507811898 0.007240108735 -4.139737478e-19)
(-0.5517160653 0.007184099077 3.935822445e-20)
(-0.4526509564 0.007128089429 -2.122153585e-20)
(-0.3535858635 0.00707207979 -8.017910136e-22)
(-0.2545207871 0.00701607016 2.273962201e-20)
(-0.1554557276 0.006960060539 6.52432735e-20)
(-0.05639068522 0.006904050929 2.12655615e-20)
(-3.721831424 0.01152998266 7.107286192e-21)
(-3.622816409 0.01145803892 -2.300166405e-19)
(-3.523801401 0.01138609518 3.602468451e-19)
(-3.424786402 0.01131415145 -8.390290529e-19)
(-3.325771411 0.01124220773 3.445338334e-19)
(-3.226756429 0.01117026402 1.342452692e-21)
(-3.127741456 0.01109832031 -1.358605791e-22)
(-3.028726492 0.0110263766 2.402626612e-20)
(-2.929711537 0.01095443291 -1.751547416e-20)
(-2.830696591 0.01088248922 -4.959586898e-19)
(-2.731681655 0.01081054553 -1.59939624e-19)
(-2.632666728 0.01073860186 -1.060094238e-20)
(-2.533651811 0.01066665819 1.339999859e-19)
(-2.434636905 0.01059471453 4.858211935e-19)
(-2.335622009 0.01052277087 -1.677350209e-21)
(-2.236607123 0.01045082723 -1.930384091e-20)
(-2.137592248 0.01037888359 -7.298785451e-19)
(-2.038577384 0.01030693996 -3.920964751e-19)
(-1.939562532 0.01023499634 1.95148503e-20)
(-1.84054769 0.01016305272 -4.097720264e-19)
(-1.741532861 0.01009110912 -2.57171956e-19)
(-1.642518043 0.01001916552 3.141191199e-21)
(-1.543503238 0.009947221932 3.28578233e-20)
(-1.444488445 0.009875278353 -4.141244953e-19)
(-1.345473665 0.009803334783 -1.469849743e-19)
(-1.246458898 0.009731391223 3.278859516e-19)
(-1.147444144 0.009659447673 -2.457971315e-20)
(-1.048429404 0.009587504132 -1.304937464e-19)
(-0.9494146775 0.009515560602 -2.428168621e-19)
(-0.8503999656 0.009443617082 7.366319544e-20)
(-0.7513852682 0.009371673572 2.22684403e-19)
(-0.6523705857 0.009299730074 -4.492541791e-20)
(-0.5533559186 0.009227786586 -9.23301679e-21)
(-0.454341267 0.00915584311 -3.694444937e-20)
(-0.3553266315 0.009083899646 1.386452232e-19)
(-0.2563120123 0.009011956193 2.394166201e-19)
(-0.15729741 0.008940012753 2.108436391e-20)
(-0.0582828248 0.008868069325 7.005859976e-21)
(-3.721863485 0.01478636758 1.047714772e-20)
(-3.622912657 0.01469410496 -8.371093361e-20)
(-3.523961837 0.01460184233 5.693555375e-19)
(-3.425011026 0.01450957972 -1.723726679e-19)
(-3.326060223 0.01441731712 -2.369297445e-20)
(-3.227109428 0.01432505452 3.043751877e-22)
(-3.128158643 0.01423279193 0)
(-3.029207866 0.01414052935 1.912361414e-20)
(-2.930257099 0.01404826678 5.074127845e-21)
(-2.831306341 0.01395600421 2.641032516e-20)
(-2.732355592 0.01386374166 6.557149814e-19)
(-2.633404854 0.01377147911 5.371780877e-19)
(-2.534454125 0.01367921658 -6.349354526e-19)
(-2.435503406 0.01358695405 -2.653087578e-19)
(-2.336552697 0.01349469153 1.916225297e-20)
(-2.237602 0.01340242903 -3.859520081e-20)
(-2.138651312 0.01331016653 5.011961765e-20)
(-2.039700636 0.01321790404 8.511421933e-20)
(-1.940749971 0.01312564156 -5.375279793e-20)
(-1.841799317 0.0130333791 2.319878304e-19)
(-1.742848676 0.01294111664 3.679801014e-19)
(-1.643898046 0.0128488542 4.325734831e-20)
(-1.544947428 0.01275659177 2.574140753e-21)
(-1.445996823 0.01266432935 -1.235706741e-20)
(-1.34704623 0.01257206694 -5.384102938e-19)
(-1.24809565 0.01247980454 -3.01877326e-19)
(-1.149145084 0.01238754216 2.795255121e-20)
(-1.050194532 0.01229527978 2.402879767e-20)
(-0.951243993 0.01220301742 -4.069889698e-19)
(-0.8522934686 0.01211075508 -6.408171935e-19)
(-0.7533429588 0.01201849275 -4.182013806e-19)
(-0.6543924638 0.01192623043 -8.99517348e-20)
(-0.5554419842 0.01183396813 -2.688816166e-19)
(-0.4564915201 0.01174170584 -1.278908348e-20)
(-0.3575410721 0.01164944356 -2.670844034e-19)
(-0.2585906404 0.0115571813 -2.428931566e-19)
(-0.1596402255 0.01146491906 -6.588464755e-20)
(-0.0606898278 0.01137265683 -5.556110502e-20)
(-3.721899513 0.01846741727 -2.787446447e-19)
(-3.623020821 0.01835218594 3.744820928e-19)
(-3.524142136 0.01823695462 8.822812608e-20)
(-3.42526346 0.0181217233 -4.7874627e-20)
(-3.326384792 0.018006492 -6.105798969e-20)
(-3.227506133 0.01789126071 -1.033264588e-19)
(-3.128627483 0.01777602943 -7.211880297e-20)
(-3.029748841 0.01766079815 1.109088121e-20)
(-2.930870209 0.01754556689 3.635882663e-20)
(-2.831991586 0.01743033564 -5.924597885e-19)
(-2.733112973 0.0173151044 -8.768140931e-19)
(-2.634234369 0.01719987318 -2.076227419e-19)
(-2.535355775 0.01708464196 1.403508106e-20)
(-2.436477191 0.01696941075 3.834919548e-20)
(-2.337598618 0.01685417956 -7.156199567e-20)
(-2.238720055 0.01673894838 3.28283069e-20)
(-2.139841503 0.01662371721 -7.577198945e-20)
(-2.040962961 0.01650848606 7.254173346e-20)
(-1.942084431 0.01639325492 5.016355032e-19)
(-1.843205913 0.01627802379 -5.933234769e-19)
(-1.744327406 0.01616279267 -3.042453542e-19)
(-1.645448911 0.01604756157 -4.199331824e-20)
(-1.546570428 0.01593233048 1.850745628e-19)
(-1.447691957 0.01581709941 7.020684808e-19)
(-1.3488135 0.01570186835 4.566855701e-19)
(-1.249935055 0.01558663731 4.416293571e-20)
(-1.151056624 0.01547140628 -7.648509094e-20)
(-1.052178206 0.01535617527 5.074494563e-19)
(-0.9532998021 0.01524094428 6.211430043e-19)
(-0.8544214125 0.0151257133 5.135989108e-19)
(-0.7555430375 0.01501048234 2.290060097e-19)
(-0.6566646773 0.01489525139 1.400690174e-19)
(-0.5577863325 0.01478002047 -1.005522603e-19)
(-0.4589080032 0.01466478956 -3.478329809e-20)
(-0.3600296899 0.01454955867 -9.512707838e-21)
(-0.2611513929 0.0144343278 3.470389778e-20)
(-0.1622731127 0.01431909695 -6.693012657e-20)
(-0.06339484971 0.01420386612 -4.30820952e-20)
(-3.721939804 0.02262760173 -4.672339803e-19)
(-3.623141783 0.022486412 1.404131057e-19)
(-3.524343769 0.02234522228 2.231684519e-20)
(-3.425545764 0.02220403257 4.459365246e-20)
(-3.326747767 0.02206284287 5.001139217e-20)
(-3.227949778 0.02192165318 -2.159337426e-19)
(-3.129151799 0.0217804635 6.477329391e-19)
(-3.030353828 0.02163927384 5.513828244e-20)
(-2.931555867 0.02149808419 -7.587171277e-20)
(-2.832757914 0.02135689456 -1.836079623e-20)
(-2.733959972 0.02121570494 1.317880847e-19)
(-2.635162039 0.02107451533 -1.009398817e-20)
(-2.536364115 0.02093332573 -1.361797779e-19)
(-2.437566202 0.02079213616 -8.803984467e-20)
(-2.3387683 0.02065094659 -1.639738856e-19)
(-2.239970407 0.02050975704 -9.467144751e-19)
(-2.141172526 0.02036856751 4.436271086e-20)
(-2.042374655 0.02022737799 -5.512907088e-19)
(-1.943576796 0.02008618848 -2.681643211e-19)
(-1.844778948 0.019944999 9.483372166e-20)
(-1.745981111 0.01980380953 4.67182675e-20)
(-1.647183287 0.01966262008 -3.06094186e-20)
(-1.548385475 0.01952143064 -6.119016648e-19)
(-1.449587675 0.01938024122 -8.959447896e-19)
(-1.350789888 0.01923905182 -2.341361615e-19)
(-1.251992114 0.01909786244 1.042687173e-19)
(-1.153194353 0.01895667308 -1.268959627e-20)
(-1.054396605 0.01881548374 8.401006353e-20)
(-0.955598872 0.01867429442 -3.267943771e-20)
(-0.8568011529 0.01853310511 9.956144917e-20)
(-0.7580034483 0.01839191583 -3.088263042e-19)
(-0.6592057585 0.01825072657 -2.638549703e-19)
(-0.560408084 0.01810953733 2.265627717e-19)
(-0.4616104251 0.01796834812 1.622195125e-20)
(-0.3628127821 0.01782715892 -6.883691792e-22)
(-0.2640151555 0.01768596975 -3.763131596e-20)
(-0.1652175456 0.01754478061 1.438729087e-20)
(-0.06641995287 0.01740359148 4.558662818e-20)
(-3.72198128 0.02732929844 -1.330224194e-19)
(-3.623274037 0.0271599137 -1.39414777e-19)
(-3.524566802 0.02699052899 -7.147103243e-21)
(-3.425859575 0.02682114432 -1.941107781e-20)
(-3.327152358 0.02665175968 -7.207907738e-20)
(-3.228445149 0.02648237509 -7.157390999e-19)
(-3.129737949 0.02631299053 2.487800996e-19)
(-3.031030759 0.02614360601 -2.454445165e-19)
(-2.932323578 0.02597422154 1.55923935e-18)
(-2.833616407 0.02580483711 -1.837507779e-20)
(-2.734909245 0.02563545271 -1.58119122e-19)
(-2.636202093 0.02546606837 -3.091452538e-21)
(-2.537494952 0.02529668406 6.915552389e-20)
(-2.438787821 0.0251272998 1.835665345e-19)
(-2.3400807 0.02495791559 8.694732054e-19)
(-2.241373591 0.02478853143 -1.746179953e-18)
(-2.142666492 0.02461914731 -1.012805063e-18)
(-2.043959404 0.02444976324 6.126874426e-20)
(-1.945252328 0.02428037922 1.167040267e-19)
(-1.846545264 0.02411099525 2.60159686e-20)
(-1.747838211 0.02394161133 -3.801787781e-21)
(-1.649131171 0.02377222747 -1.117501338e-19)
(-1.550424143 0.02360284366 -7.644539672e-20)
(-1.451717128 0.0234334599 -4.841688654e-20)
(-1.353010126 0.0232640762 -8.556877783e-20)
(-1.254303137 0.02309469256 2.357697105e-20)
(-1.155596162 0.02292530898 5.26076854e-20)
(-1.0568892 0.02275592546 1.551631602e-19)
(-0.9581822531 0.022586542 8.727366911e-20)
(-0.8594753202 0.0224171586 -4.957110992e-20)
(-0.760768402 0.02224777527 6.724897934e-19)
(-0.6620614989 0.022078392 2.592678468e-19)
(-0.5633546113 0.02190900881 8.962838885e-20)
(-0.4646477394 0.02173962568 7.865462043e-20)
(-0.3659408838 0.02157024262 2.079096563e-20)
(-0.2672340446 0.02140085963 2.024317685e-20)
(-0.1685272223 0.02123147672 -1.752750882e-20)
(-0.06982041739 0.02106209388 3.72213999e-21)
(-3.722030541 0.03264275734 1.063317689e-19)
(-3.623425758 0.03244298172 -2.125257697e-19)
(-3.524820982 0.03224320616 -1.221054876e-19)
(-3.426216216 0.03204343064 5.223202204e-19)
(-3.327611458 0.03184365518 -6.396671347e-19)
(-3.229006708 0.03164387978 8.506754021e-20)
(-3.130401968 0.03144410443 -5.439046354e-20)
(-3.031797237 0.03124432913 -2.277925899e-18)
(-2.933192515 0.03104455389 2.019440595e-18)
(-2.834587802 0.03084477871 -9.980099889e-19)
(-2.7359831 0.03064500359 -9.86112161e-20)
(-2.637378407 0.03044522852 5.737206771e-22)
(-2.538773724 0.03024545352 -5.46098708e-20)
(-2.440169051 0.03004567858 3.582867835e-20)
(-2.341564388 0.02984590371 3.528574052e-18)
(-2.242959737 0.0296461289 1.730886952e-18)
(-2.144355096 0.02944635416 4.2180179e-19)
(-2.045750466 0.02924657948 2.968871449e-19)
(-1.947145847 0.02904680487 1.194244258e-18)
(-1.84854124 0.02884703034 -4.768694987e-20)
(-1.749936644 0.02864725587 -1.186428151e-19)
(-1.651332061 0.02844748148 1.195883203e-19)
(-1.552727489 0.02824770717 3.117228911e-19)
(-1.45412293 0.02804793293 1.386846071e-19)
(-1.355518384 0.02784815876 7.578269736e-20)
(-1.256913851 0.02764838468 -2.305116925e-20)
(-1.158309331 0.02744861068 7.988433216e-20)
(-1.059704825 0.02724883677 -1.60607692e-19)
(-0.9611003322 0.02704906294 1.163190256e-19)
(-0.8624958538 0.02684928919 4.129789734e-19)
(-0.7638913899 0.02664951554 3.224024721e-20)
(-0.6652869407 0.02644974197 -8.593315741e-20)
(-0.5666825065 0.0262499685 -4.028738852e-19)
(-0.4680780878 0.02605019513 -1.037545053e-19)
(-0.3694736849 0.02585042185 6.033852115e-21)
(-0.2708692981 0.02565064867 3.987616955e-19)
(-0.1722649278 0.02545087559 -3.805265827e-20)
(-0.07366057441 0.02525110262 -9.515604344e-20)
(-3.722087155 0.03864672197 -6.27620994e-19)
(-3.623596925 0.03841302048 6.743843151e-19)
(-3.525106703 0.03817931904 1.244565957e-18)
(-3.426616488 0.03794561764 -6.098097008e-19)
(-3.328126283 0.03771191629 -1.00739782e-19)
(-3.229636085 0.03747821498 1.995789537e-24)
(-3.131145897 0.03724451373 -6.237222039e-20)
(-3.032655717 0.03701081252 -1.826426259e-18)
(-2.934165546 0.03677711136 1.369684264e-18)
(-2.835675384 0.03654341024 -4.534492548e-20)
(-2.737185231 0.03630970919 -2.05420975e-21)
(-2.638695088 0.03607600818 3.733271012e-20)
(-2.540204954 0.03584230722 0)
(-2.44171483 0.03560860632 -1.469864623e-18)
(-2.343224716 0.03537490548 -5.729026722e-19)
(-2.244734612 0.03514120469 5.763393422e-22)
(-2.146244519 0.03490750396 5.978978376e-20)
(-2.047754436 0.03467380329 -1.257142943e-18)
(-1.949264364 0.03444010268 -1.769133198e-19)
(-1.850774303 0.03420640213 -1.007153728e-20)
(-1.752284253 0.03397270164 7.682703249e-19)
(-1.653794215 0.03373900121 1.502832906e-19)
(-1.555304189 0.03350530085 2.643545417e-20)
(-1.456814174 0.03327160056 -4.030588905e-19)
(-1.358324171 0.03303790033 -1.434336867e-18)
(-1.259834181 0.03280420018 -1.952831001e-20)
(-1.161344204 0.03257050009 -3.485193813e-21)
(-1.06285424 0.03233680007 5.374223653e-20)
(-0.9643642886 0.03210310013 -4.840727036e-19)
(-0.865874351 0.03186940027 -3.498481883e-19)
(-0.7673844272 0.03163570048 -3.126369833e-19)
(-0.6688945175 0.03140200077 7.779129572e-19)
(-0.5704046223 0.03116830114 1.24992908e-19)
(-0.4719147418 0.03093460159 1.104371228e-19)
(-0.3734248764 0.03070090213 -1.611905488e-19)
(-0.2749350264 0.03046720275 -5.466128942e-20)
(-0.1764451921 0.03023350346 2.205101307e-20)
(-0.07795537397 0.02999980426 -5.274356948e-20)
(-3.722150312 0.04543052128 -6.241475477e-19)
(-3.623787509 0.04515848852 7.282817932e-19)
(-3.525424714 0.04488645581 1.40700256e-18)
(-3.427061926 0.04461442314 -1.137983558e-18)
(-3.328699146 0.04434239051 -3.911754216e-19)
(-3.230336375 0.04407035792 -2.548639083e-19)
(-3.131973612 0.04379832538 6.478644242e-20)
(-3.033610857 0.04352629288 8.030451242e-20)
(-2.935248111 0.04325426042 1.719006736e-19)
(-2.836885374 0.04298222801 1.111505197e-19)
(-2.738522646 0.04271019565 -8.236888411e-20)
(-2.640159926 0.04243816333 8.72815629e-20)
(-2.541797217 0.04216613107 1.079534099e-19)
(-2.443434516 0.04189409885 1.799474471e-19)
(-2.345071825 0.04162206668 2.927303628e-19)
(-2.246709144 0.04135003457 -3.015384755e-20)
(-2.148346473 0.0410780025 1.25880038e-18)
(-2.049983812 0.04080597049 -3.045255824e-19)
(-1.951621162 0.04053393854 -1.643983551e-19)
(-1.853258522 0.04026190664 -9.674795421e-19)
(-1.754895893 0.03998987479 -1.63386665e-18)
(-1.656533276 0.03971784301 2.333425812e-19)
(-1.558170669 0.03944581128 1.082102952e-18)
(-1.459808074 0.03917377962 3.311151768e-18)
(-1.361445491 0.03890174801 3.175742191e-19)
(-1.263082919 0.03862971647 -8.602089462e-20)
(-1.16472036 0.03835768499 5.39172495e-21)
(-1.066357813 0.03808565358 4.523705052e-20)
(-0.9679952796 0.03781362223 -1.043553167e-19)
(-0.8696327588 0.03754159095 4.660946729e-19)
(-0.7712702512 0.03726955974 -2.951848913e-19)
(-0.6729077573 0.03699752861 -7.972408972e-20)
(-0.5745452772 0.03672549754 5.617477133e-19)
(-0.4761828114 0.03645346655 3.603385752e-19)
(-0.37782036 0.03618143564 3.208607879e-20)
(-0.2794579235 0.0359094048 -5.26242234e-20)
(-0.1810955022 0.03563737405 -3.894703779e-21)
(-0.08273309632 0.03536534337 -1.272786759e-19)
(-3.722217775 0.05309614089 5.799894208e-20)
(-3.623997855 0.05278249965 -6.301134064e-20)
(-3.525777942 0.05246885853 8.107944827e-20)
(-3.427558039 0.05215521751 2.437455183e-19)
(-3.329338144 0.05184157662 3.097295295e-19)
(-3.231118258 0.05152793583 1.751688605e-19)
(-3.13289838 0.05121429517 -1.132962117e-18)
(-3.034678512 0.05090065463 2.331124676e-18)
(-2.936458653 0.05058701421 9.174049459e-20)
(-2.838238804 0.05027337391 3.08679208e-19)
(-2.740018964 0.04995973374 4.680443396e-19)
(-2.641799134 0.04964609371 1.167929909e-20)
(-2.543579314 0.0493324538 -8.280130218e-20)
(-2.445359504 0.04901881403 -3.520161193e-19)
(-2.347139704 0.0487051744 -1.866528268e-18)
(-2.248919915 0.04839153491 -1.644988666e-18)
(-2.150700136 0.04807789556 3.004553333e-19)
(-2.052480369 0.04776425635 2.193357567e-19)
(-1.954260612 0.0474506173 9.849897801e-20)
(-1.856040867 0.04713697839 1.734336391e-18)
(-1.757821134 0.04682333964 -2.253683016e-19)
(-1.659601412 0.04650970105 -1.414897389e-18)
(-1.561381703 0.04619606262 -1.915420047e-18)
(-1.463162005 0.04588242435 -3.339035154e-19)
(-1.364942321 0.04556878625 9.282248392e-20)
(-1.266722649 0.04525514832 -2.860904243e-19)
(-1.16850299 0.04494151057 -8.405177042e-20)
(-1.070283344 0.04462787299 2.929199023e-19)
(-0.9720637117 0.0443142356 1.117556956e-18)
(-0.8738440934 0.04400059839 1.602838954e-20)
(-0.7756244893 0.04368696137 7.78929392e-20)
(-0.6774048996 0.04337332454 -4.050539071e-19)
(-0.5791853247 0.04305968791 -1.260146276e-18)
(-0.4809657648 0.04274605149 -2.042738685e-19)
(-0.3827462203 0.04243241527 -1.727335958e-19)
(-0.2845266915 0.04211877926 7.346674453e-20)
(-0.1863071788 0.04180514347 -1.923554999e-19)
(-0.08808768251 0.0414915079 -3.579726444e-19)
(-3.72229551 0.06175839502 1.166159012e-19)
(-3.624235857 0.06140013095 -2.406326591e-19)
(-3.526176211 0.06104186703 1.622991968e-19)
(-3.428116574 0.06068360325 -1.010397422e-18)
(-3.330056946 0.06032533962 1.331355647e-18)
(-3.231997327 0.05996707614 1.33564875e-19)
(-3.133937716 0.05960881282 -2.234873486e-18)
(-3.035878115 0.05925054965 1.018429273e-18)
(-2.937818523 0.05889228664 -4.08565365e-20)
(-2.839758941 0.05853402379 -4.388678203e-19)
(-2.741699368 0.05817576111 -3.207810389e-19)
(-2.643639805 0.0578174986 -1.346856751e-19)
(-2.545580252 0.05745923626 3.191230112e-19)
(-2.447520709 0.05710097409 2.53024476e-18)
(-2.349461176 0.05674271211 3.398551398e-19)
(-2.251401654 0.0563844503 -2.516887748e-19)
(-2.153342143 0.05602618868 -1.540519609e-19)
(-2.055282643 0.05566792725 -1.871210893e-19)
(-1.957223154 0.05530966601 -4.148974584e-20)
(-1.859163676 0.05495140497 -4.727741763e-21)
(-1.76110421 0.05459314412 4.935899094e-19)
(-1.663044755 0.05423488348 5.742782249e-19)
(-1.564985313 0.05387662305 1.168677412e-19)
(-1.466925883 0.05351836283 6.023077293e-20)
(-1.368866465 0.05316010283 1.982059687e-19)
(-1.27080706 0.05280184305 -7.285223964e-19)
(-1.172747669 0.05244358349 1.607495701e-19)
(-1.07468829 0.05208532416 -2.379224886e-19)
(-0.976628925 0.05172706507 8.433805755e-19)
(-0.8785695738 0.05136880621 -1.148670203e-18)
(-0.7805102368 0.0510105476 2.144692493e-19)
(-0.6824509141 0.05065228924 5.790827203e-19)
(-0.5843916061 0.05029403114 2.594974703e-20)
(-0.486332313 0.04993577329 -1.896026327e-20)
(-0.3882730353 0.04957751571 4.696215056e-21)
(-0.2902137732 0.04921925841 4.820828048e-20)
(-0.1921545271 0.04886100138 4.818526626e-19)
(-0.09409529728 0.04850274463 6.611153419e-20)
(-3.722398499 0.07338942689 2.758108104e-21)
(-3.624549814 0.07297341582 8.621265751e-20)
(-3.52670114 0.07255740502 -3.572237416e-20)
(-3.428852477 0.07214139452 -1.290293649e-18)
(-3.331003825 0.0717253843 1.689191062e-18)
(-3.233155184 0.07130937437 -1.444231328e-18)
(-3.135306555 0.07089336475 2.507579756e-18)
(-3.037457937 0.07047735543 -2.66146612e-18)
(-2.939609331 0.07006134642 2.822494656e-19)
(-2.841760737 0.06964533773 -3.093568041e-19)
(-2.743912156 0.06922932936 -1.13559695e-21)
(-2.646063586 0.06881332132 -1.264955553e-19)
(-2.54821503 0.06839731361 -8.660605782e-19)
(-2.450366486 0.06798130624 -1.05572203e-19)
(-2.352517956 0.06756529921 3.302332848e-18)
(-2.254669439 0.06714929254 9.101525847e-19)
(-2.156820936 0.06673328623 -1.777596383e-18)
(-2.058972447 0.06631728028 9.450072617e-20)
(-1.961123972 0.06590127471 2.210552026e-19)
(-1.863275511 0.06548526952 2.240617572e-19)
(-1.765427065 0.06506926471 4.104500695e-20)
(-1.667578634 0.0646532603 -2.032422387e-20)
(-1.569730218 0.06423725628 -1.722770262e-19)
(-1.471881818 0.06382125268 1.015355567e-19)
(-1.374033434 0.0634052495 -7.222838694e-21)
(-1.276185066 0.06298924674 8.400487406e-19)
(-1.178336714 0.06257324442 -5.009785716e-19)
(-1.080488379 0.06215724254 -1.925163176e-18)
(-0.9826400615 0.06174124112 1.846860027e-18)
(-0.8847917614 0.06132524015 -4.519967818e-19)
(-0.7869434791 0.06090923966 -1.45229465e-19)
(-0.689095215 0.06049323965 1.262977837e-19)
(-0.5912469695 0.06007724012 -1.206681397e-19)
(-0.493398743 0.0596612411 2.604249202e-19)
(-0.3955505358 0.05924524259 5.320137865e-20)
(-0.2977023484 0.0588292446 -1.118114446e-19)
(-0.1998541812 0.05841324715 5.132425018e-20)
(-0.1020060345 0.05799725024 -1.595532424e-19)
(-3.722521589 0.08774915636 1.259969981e-20)
(-3.624928437 0.0872657639 -8.71511959e-20)
(-3.527335297 0.08678237188 -1.094874626e-20)
(-3.429742168 0.08629898033 3.642037513e-21)
(-3.332149051 0.08581558924 2.245105468e-18)
(-3.234555946 0.08533219863 -7.785264363e-19)
(-3.136962854 0.0848488085 3.219156073e-18)
(-3.039369773 0.08436541886 -4.909612791e-18)
(-2.941776706 0.08388202972 3.898412392e-18)
(-2.844183651 0.08339864109 -1.583081504e-18)
(-2.746590609 0.08291525298 6.288747467e-19)
(-2.648997581 0.0824318654 1.562627824e-19)
(-2.551404566 0.08194847835 -9.660944187e-19)
(-2.453811565 0.08146509184 -5.527700834e-18)
(-2.356218578 0.0809817059 3.315605415e-18)
(-2.258625605 0.08049832051 2.05141907e-18)
(-2.161032646 0.0800149357 -5.84758443e-19)
(-2.063439703 0.07953155148 0)
(-1.965846774 0.07904816786 -8.079236508e-20)
(-1.868253861 0.07856478484 3.217561467e-19)
(-1.770660963 0.07808140244 3.159849692e-20)
(-1.673068081 0.07759802067 -1.96592855e-20)
(-1.575475216 0.07711463955 -5.153215902e-19)
(-1.477882367 0.07663125908 6.321255753e-19)
(-1.380289534 0.07614787927 -7.00055098e-19)
(-1.282696719 0.07566450015 3.704416184e-19)
(-1.185103921 0.07518112172 6.159665927e-19)
(-1.087511141 0.07469774399 -1.027669177e-18)
(-0.9899183793 0.07421436699 -1.003033762e-18)
(-0.8923256357 0.07373099072 -3.185741222e-19)
(-0.794732911 0.0732476152 5.737990206e-20)
(-0.6971402055 0.07276424044 7.625344216e-19)
(-0.5995475195 0.07228086646 -2.895012186e-19)
(-0.5019548535 0.07179749327 -3.701021045e-19)