/*--------------------------------*- C++ -*----------------------------------*\
  =========                 |
  \\      /  F ield         | OpenFOAM: The Open Source CFD Toolbox
   \\    /   O peration     | Website:  https://openfoam.org
    \\  /    A nd           | Version:  6
     \\/     M anipulation  |
\*---------------------------------------------------------------------------*/
FoamFile
{
    version     2.0;
    format      binary;
    class       polyBoundaryMesh;
    location    "constant/polyMesh";
    object      boundary;
}
// * * * * * * * * * * * * * * * * * * * * * * * * * * * * * * * * * * * * * //

9
(
    inlet
    {
        type            patch;
        nFaces          0;
        startFace       2968;
    }
    outlet
    {
        type            patch;
        nFaces          0;
        startFace       2968;
    }
    wedge0
    {
        type            wedge;
        inGroups        1(wedge);
        nFaces          1529;
        startFace       2968;
    }
    wedge1
    {
        type            wedge;
        inGroups        1(wedge);
        nFaces          1529;
        startFace       4497;
    }
    pipe
    {
        type            wall;
        inGroups        1(wall);
        nFaces          24;
        startFace       6026;
    }
    BoR
    {
        type            wall;
        inGroups        1(wall);
        nFaces          25;
        startFace       6050;
    }
    defaultFaces
    {
        type            empty;
        inGroups        1(empty);
        nFaces          0;
        startFace       6075;
    }
    procBoundary5to4
    {
        type            processor;
        inGroups        1(processor);
        nFaces          65;
        startFace       6075;
        matchTolerance  0.0001;
        transform       unknown;
        myProcNo        5;
        neighbProcNo    4;
    }
    procBoundary5to6
    {
        type            processor;
        inGroups        1(processor);
        nFaces          66;
        startFace       6140;
        matchTolerance  0.0001;
        transform       unknown;
        myProcNo        5;
        neighbProcNo    6;
    }
)

// ************************************************************************* //
