/*--------------------------------*- C++ -*----------------------------------*\
  =========                 |
  \\      /  F ield         | OpenFOAM: The Open Source CFD Toolbox
   \\    /   O peration     | Website:  https://openfoam.org
    \\  /    A nd           | Version:  7
     \\/     M anipulation  |
\*---------------------------------------------------------------------------*/
FoamFile
{
    version     2.0;
    format      ascii;
    class       dictionary;
    object      controlDict;
}
// * * * * * * * * * * * * * * * * * * * * * * * * * * * * * * * * * * * * * //

// this file has been created by prof. hence the order.

deltaT   1;
writePrecision   8;
purgeWrite   0;
application   simpleFoam;
runTimeModifiable   true;
startFrom   startTime;
startTime   0;
writeInterval   2000;
//libs   ("libkOmegaSST_BOR_InDaLoop_R_added_features.so");
libs   ("libkOmegaSST_BOR_InDaLoop_R.so");
stopAt   endTime;
timeFormat   general;
endTime   2000;
writeControl   timeStep;
writeFormat   ascii;
timePrecision   6;
writeCompression   off;

// ************************************************************************* //
