/*--------------------------------*- C++ -*----------------------------------*\
| =========                 |                                                 |
| \\      /  F ield         | OpenFOAM: The Open Source CFD Toolbox           |
|  \\    /   O peration     | Version:  2.4.0                                 |
|   \\  /    A nd           | Web:      www.OpenFOAM.org                      |
|    \\/     M anipulation  |                                                 |
\*---------------------------------------------------------------------------*/
FoamFile
{
    version     2.0;
    format      ascii;
    class       scalarAverageField;
    location    "constant/boundaryData/inlet/0";
    object      nut;
}
// * * * * * * * * * * * * * * * * * * * * * * * * * * * * * * * * * * * * * //

// Average
0.0

//Data on Points
2700
(
//wedge0
4.461017E-03
4.461017E-03
4.461017E-03
4.461017E-03
4.461017E-03
4.461017E-03
4.461017E-03
4.461017E-03
4.461017E-03
4.461017E-03
4.461017E-03
4.461017E-03
4.461017E-03
4.461017E-03
4.461017E-03
4.461017E-03
4.461017E-03
4.461017E-03
4.461017E-03
4.461017E-03
4.461017E-03
4.461017E-03
4.461017E-03
4.461017E-03
4.461017E-03
4.461017E-03
4.461017E-03
4.461017E-03
4.461017E-03
4.461017E-03
4.461017E-03
4.461017E-03
4.461017E-03
4.461017E-03
4.461017E-03
4.461017E-03
4.461017E-03
4.461017E-03
4.461017E-03
4.461017E-03
4.461017E-03
4.461017E-03
4.461017E-03
4.461017E-03
4.461017E-03
4.461017E-03
4.461045E-03
4.461074E-03
4.461110E-03
4.461183E-03
4.461267E-03
4.461367E-03
4.461513E-03
4.461678E-03
4.461869E-03
4.462117E-03
4.462396E-03
4.462716E-03
4.463107E-03
4.463546E-03
4.464044E-03
4.464631E-03
4.465284E-03
4.466015E-03
4.466855E-03
4.467779E-03
4.468801E-03
4.469951E-03
4.471203E-03
4.472571E-03
4.474083E-03
4.475713E-03
4.477477E-03
4.479402E-03
4.481463E-03
4.483675E-03
4.486064E-03
4.488606E-03
4.491314E-03
4.494212E-03
4.497274E-03
4.500509E-03
4.503938E-03
4.507525E-03
4.511281E-03
4.515218E-03
4.519303E-03
4.523544E-03
4.527954E-03
4.532498E-03
4.537185E-03
4.542026E-03
4.546986E-03
4.552070E-03
4.557291E-03
4.562609E-03
4.568033E-03
4.573573E-03
4.579189E-03
4.584891E-03
4.590687E-03
4.596535E-03
4.602445E-03
4.608425E-03
4.614433E-03
4.620478E-03
4.626570E-03
4.632667E-03
4.638780E-03
4.644918E-03
4.651041E-03
4.657163E-03
4.663296E-03
4.669402E-03
4.675498E-03
4.681595E-03
4.687658E-03
4.693705E-03
4.699748E-03
4.705748E-03
4.711722E-03
4.717680E-03
4.723580E-03
4.729439E-03
4.735263E-03
4.741008E-03
4.746693E-03
4.752302E-03
4.757821E-03
4.763265E-03
4.768613E-03
4.773856E-03
4.779012E-03
4.784066E-03
4.789011E-03
4.793868E-03
4.798626E-03
4.803275E-03
4.807840E-03
4.812312E-03
4.816683E-03
4.820982E-03
4.825202E-03
4.829342E-03
4.833430E-03
4.837467E-03
4.841452E-03
4.845419E-03
4.849372E-03
4.853315E-03
4.857287E-03
4.861292E-03
4.865334E-03
4.869452E-03
4.873653E-03
4.877936E-03
4.882337E-03
4.886856E-03
4.891487E-03
4.896258E-03
4.901169E-03
4.906212E-03
4.911417E-03
4.916782E-03
4.922297E-03
4.927984E-03
4.933836E-03
4.939833E-03
4.945995E-03
4.952308E-03
4.958750E-03
4.965334E-03
4.972046E-03
4.978859E-03
4.985789E-03
4.992822E-03
4.999935E-03
5.007143E-03
5.014429E-03
5.021766E-03
5.029164E-03
5.036608E-03
5.044074E-03
5.051580E-03
5.059115E-03
5.066661E-03
5.074236E-03
5.081835E-03
5.089435E-03
5.097057E-03
5.104693E-03
5.112322E-03
5.119968E-03
5.127626E-03
5.135278E-03
5.142951E-03
5.150643E-03
5.158339E-03
5.166070E-03
5.173840E-03
5.181636E-03
5.189488E-03
5.197404E-03
5.205369E-03
5.213424E-03
5.221578E-03
5.229822E-03
5.238194E-03
5.246706E-03
5.255343E-03
5.264140E-03
5.273106E-03
5.282223E-03
5.291525E-03
5.301016E-03
5.310674E-03
5.320530E-03
5.330586E-03
5.340821E-03
5.351263E-03
5.361914E-03
5.372750E-03
5.383793E-03
5.395042E-03
5.406468E-03
5.418096E-03
5.429925E-03
5.441920E-03
5.454097E-03
5.466448E-03
5.478935E-03
5.491575E-03
5.504353E-03
5.517260E-03
5.530278E-03
5.543380E-03
5.556626E-03
5.569934E-03
5.583278E-03
5.596749E-03
5.610253E-03
5.623773E-03
5.637396E-03
5.651024E-03
5.664634E-03
5.678316E-03
5.691975E-03
5.705596E-03
5.719272E-03
5.732910E-03
5.746496E-03
5.760131E-03
5.773724E-03
5.787264E-03
5.800849E-03
5.814388E-03
5.827869E-03
5.841388E-03
5.854849E-03
5.868247E-03
5.881690E-03
5.895090E-03
5.908443E-03
5.921853E-03
5.935224E-03
5.948547E-03
5.961923E-03
5.975250E-03
5.988518E-03
6.001833E-03
6.015099E-03
6.028309E-03
6.041565E-03
6.054763E-03
6.067893E-03
6.081054E-03
6.094141E-03
6.107141E-03
6.120151E-03
6.133059E-03
6.145848E-03
6.158620E-03
6.171265E-03
6.183769E-03
6.196231E-03
6.208533E-03
6.220656E-03
6.232695E-03
6.244533E-03
6.256153E-03
6.267659E-03
6.278936E-03
6.289970E-03
6.300860E-03
6.311493E-03
6.321853E-03
6.332050E-03
6.341970E-03
6.351603E-03
6.361059E-03
6.370226E-03
6.379095E-03
6.387777E-03
6.396162E-03
6.404243E-03
6.412133E-03
6.419722E-03
6.427002E-03
6.434093E-03
6.440891E-03
6.447395E-03
6.453724E-03
6.459771E-03
6.465541E-03
6.471129E-03
6.476466E-03
6.481567E-03
6.486460E-03
6.491147E-03
6.495635E-03
6.499927E-03
6.504032E-03
6.507947E-03
6.511675E-03
6.515229E-03
6.518611E-03
6.521824E-03
6.524876E-03
6.527766E-03
6.530491E-03
6.533060E-03
6.535469E-03
6.537715E-03
6.539806E-03
6.541744E-03
6.543528E-03
6.545168E-03
6.546666E-03
6.548022E-03
6.549250E-03
6.550345E-03
6.551300E-03
6.552126E-03
6.552816E-03
6.553366E-03
6.553787E-03
6.554072E-03
6.554218E-03
6.554235E-03
6.554118E-03
6.553854E-03
6.553451E-03
6.552900E-03
6.552193E-03
6.551337E-03
6.550326E-03
6.549148E-03
6.547812E-03
6.546309E-03
6.544628E-03
6.542779E-03
6.540756E-03
6.538546E-03
6.536159E-03
6.533588E-03
6.530822E-03
6.527873E-03
6.524738E-03
6.521408E-03
6.517896E-03
6.514198E-03
6.510305E-03
6.506231E-03
6.501974E-03
6.497526E-03
6.492903E-03
6.488100E-03
6.483109E-03
6.477943E-03
6.472597E-03
6.467064E-03
6.461359E-03
6.455480E-03
6.449417E-03
6.443191E-03
6.436797E-03
6.430226E-03
6.423492E-03
6.416590E-03
6.409508E-03
6.402263E-03
6.394845E-03
6.387244E-03
6.379473E-03
6.371526E-03
6.363390E-03
6.355076E-03
6.346579E-03
6.337885E-03
6.329010E-03
6.319949E-03
6.310690E-03
6.301249E-03
6.291622E-03
6.281797E-03
6.271790E-03
6.261596E-03
6.251204E-03
6.240630E-03
6.229870E-03
6.218913E-03
6.207776E-03
6.196456E-03
6.184937E-03
6.173239E-03
6.161356E-03
6.149276E-03
6.137017E-03
6.124575E-03
6.111937E-03
6.099123E-03
6.086130E-03
6.072948E-03
6.059595E-03
6.046070E-03
6.032360E-03
6.018488E-03
6.004450E-03
5.990237E-03
5.975871E-03
5.961351E-03
5.946665E-03
5.931836E-03
5.916862E-03
5.901732E-03
5.886468E-03
5.871068E-03
5.855521E-03
5.839849E-03
5.824053E-03
5.808123E-03
5.792080E-03
5.775923E-03
5.759640E-03
5.743250E-03
5.726753E-03
5.710135E-03
5.693419E-03
5.676602E-03
5.659671E-03
5.642645E-03
5.625523E-03
5.608291E-03
5.590971E-03
5.573561E-03
5.556050E-03
5.538457E-03
5.520782E-03
5.503011E-03
5.485162E-03
5.467234E-03
5.449212E-03
5.431116E-03
5.412942E-03
5.394676E-03
5.376338E-03
5.357926E-03
5.339426E-03
5.320859E-03
5.302223E-03
5.283505E-03
5.264726E-03
5.245884E-03
5.226967E-03
5.207994E-03
5.188966E-03
5.169869E-03
5.150724E-03
5.131529E-03
5.112273E-03
5.092976E-03
5.073636E-03
5.054243E-03
5.034814E-03
5.015350E-03
4.995839E-03
4.976301E-03
4.956735E-03
4.937129E-03
4.917502E-03
4.897855E-03
4.878176E-03
4.858486E-03
4.838785E-03
4.819062E-03
4.799336E-03
4.779607E-03
4.759865E-03
4.740129E-03
4.720398E-03
4.700662E-03
4.680937E-03
4.661225E-03
4.641512E-03
4.621816E-03
4.602136E-03
4.582460E-03
4.562805E-03
4.543171E-03
4.523544E-03
4.503942E-03
4.484364E-03
4.464798E-03
4.445260E-03
4.425751E-03
4.406256E-03
4.386793E-03
4.367362E-03
4.347950E-03
4.328572E-03
4.309229E-03
4.289908E-03
4.270623E-03
4.251375E-03
4.232151E-03
4.212966E-03
4.193819E-03
4.174699E-03
4.155620E-03
4.136581E-03
4.117569E-03
4.098599E-03
4.079670E-03
4.060769E-03
4.041911E-03
4.023095E-03
4.004308E-03
3.985564E-03
3.966861E-03
3.948189E-03
3.929560E-03
3.910973E-03
3.892416E-03
3.873903E-03
3.855433E-03
3.836994E-03
3.818599E-03
3.800247E-03
3.781928E-03
3.763653E-03
3.745423E-03
3.727227E-03
3.709076E-03
3.690971E-03
3.672901E-03
3.654878E-03
3.636902E-03
3.618963E-03
3.601073E-03
3.583231E-03
3.565428E-03
3.547674E-03
3.529970E-03
3.512306E-03
3.494693E-03
3.477131E-03
3.459610E-03
3.442142E-03
3.424726E-03
3.407354E-03
3.390035E-03
3.372770E-03
3.355551E-03
3.338386E-03
3.321277E-03
3.304214E-03
3.287207E-03
3.270256E-03
3.253354E-03
3.236509E-03
3.219721E-03
3.202982E-03
3.186302E-03
3.169680E-03
3.153107E-03
3.136595E-03
3.120141E-03
3.103738E-03
3.087395E-03
3.071112E-03
3.054881E-03
3.038710E-03
3.022598E-03
3.006539E-03
2.990539E-03
2.974599E-03
2.958711E-03
2.942882E-03
2.927112E-03
2.911393E-03
2.895733E-03
2.880132E-03
2.864581E-03
2.849089E-03
2.833655E-03
2.818271E-03
2.802944E-03
2.787674E-03
2.772453E-03
2.757288E-03
2.742179E-03
2.727117E-03
2.712111E-03
2.697158E-03
2.682253E-03
2.667402E-03
2.652604E-03
2.637853E-03
2.623154E-03
2.608507E-03
2.593907E-03
2.579358E-03
2.564861E-03
2.550409E-03
2.536009E-03
2.521659E-03
2.507355E-03
2.493101E-03
2.478898E-03
2.464740E-03
2.450632E-03
2.436574E-03
2.422562E-03
2.408600E-03
2.394688E-03
2.380822E-03
2.367006E-03
2.353240E-03
2.339520E-03
2.325851E-03
2.312232E-03
2.298658E-03
2.285135E-03
2.271662E-03
2.258235E-03
2.244858E-03
2.231532E-03
2.218251E-03
2.205020E-03
2.191840E-03
2.178705E-03
2.165620E-03
2.152585E-03
2.139596E-03
2.126656E-03
2.113766E-03
2.100922E-03
2.088126E-03
2.075380E-03
2.062679E-03
2.050027E-03
2.037423E-03
2.024864E-03
2.012354E-03
1.999891E-03
1.987473E-03
1.975102E-03
1.962778E-03
1.950498E-03
1.938264E-03
1.926077E-03
1.913933E-03
1.901835E-03
1.889782E-03
1.877772E-03
1.865807E-03
1.853887E-03
1.842008E-03
1.830174E-03
1.818384E-03
1.806634E-03
1.794928E-03
1.783266E-03
1.771643E-03
1.760063E-03
1.748525E-03
1.737027E-03
1.725570E-03
1.714154E-03
1.702777E-03
1.691440E-03
1.680143E-03
1.668883E-03
1.657662E-03
1.646480E-03
1.635334E-03
1.624226E-03
1.613155E-03
1.602119E-03
1.591119E-03
1.580155E-03
1.569225E-03
1.558329E-03
1.547468E-03
1.536638E-03
1.525842E-03
1.515079E-03
1.504346E-03
1.493645E-03
1.482976E-03
1.472335E-03
1.461724E-03
1.451143E-03
1.440589E-03
1.430064E-03
1.419567E-03
1.409096E-03
1.398651E-03
1.388233E-03
1.377839E-03
1.367470E-03
1.357126E-03
1.346804E-03
1.336506E-03
1.326231E-03
1.315977E-03
1.305744E-03
1.295533E-03
1.285341E-03
1.275169E-03
1.265016E-03
1.254881E-03
1.244764E-03
1.234665E-03
1.224581E-03
1.214514E-03
1.204462E-03
1.194424E-03
1.184400E-03
1.174391E-03
1.164393E-03
1.154407E-03
1.144434E-03
1.134470E-03
1.124517E-03
1.114574E-03
1.104638E-03
1.094711E-03
1.084792E-03
1.074879E-03
1.064972E-03
1.055071E-03
1.045174E-03
1.035281E-03
1.025392E-03
1.015505E-03
1.005621E-03
9.957384E-04
9.858559E-04
9.759741E-04
9.660923E-04
9.562089E-04
9.463244E-04
9.364382E-04
9.265489E-04
9.166568E-04
9.067616E-04
8.968619E-04
8.869581E-04
8.770500E-04
8.671363E-04
8.572174E-04
8.472934E-04
8.373629E-04
8.274266E-04
8.174847E-04
8.075358E-04
7.975810E-04
7.876204E-04
7.776530E-04
7.676799E-04
7.577014E-04
7.477168E-04
7.377273E-04
7.277333E-04
7.177345E-04
7.077323E-04
6.977272E-04
6.877193E-04
6.777099E-04
6.677001E-04
6.576900E-04
6.476814E-04
6.376754E-04
6.276726E-04
6.176748E-04
6.076836E-04
5.976997E-04
5.877252E-04
5.777621E-04
5.678113E-04
5.578752E-04
5.479560E-04
5.380549E-04
5.281746E-04
5.183174E-04
5.084850E-04
4.986802E-04
4.889056E-04
4.791631E-04
4.694556E-04
4.597862E-04
4.501567E-04
4.405705E-04
4.310306E-04
4.215392E-04
4.120997E-04
4.027152E-04
3.933882E-04
3.841220E-04
3.749199E-04
3.657844E-04
3.567190E-04
3.477269E-04
3.388107E-04
3.299737E-04
3.212194E-04
3.125501E-04
3.039691E-04
2.954797E-04
2.870844E-04
2.787862E-04
2.705882E-04
2.624928E-04
2.545029E-04
2.466213E-04
2.388501E-04
2.311921E-04
2.236500E-04
2.162255E-04
2.089210E-04
2.017391E-04
1.946811E-04
1.877493E-04
1.809456E-04
1.742715E-04
1.677285E-04
1.613183E-04
1.550421E-04
1.489011E-04
1.428967E-04
1.370295E-04
1.313004E-04
1.257105E-04
1.202601E-04
1.149497E-04
1.097798E-04
1.047505E-04
9.986172E-05
9.511374E-05
9.061325E-05
8.625901E-05
8.205092E-05
7.798822E-05
7.407018E-05
7.029607E-05
6.666450E-05
6.317406E-05
5.982333E-05
5.661024E-05
5.353272E-05
5.058861E-05
4.777523E-05
4.508982E-05
4.252962E-05
4.009136E-05
3.777175E-05
3.556750E-05
3.347492E-05
3.149031E-05
2.961007E-05
2.783022E-05
2.614687E-05
2.455624E-05
2.305430E-05
2.163712E-05
2.030096E-05
1.904185E-05
1.785602E-05
1.673989E-05
1.568973E-05
1.470200E-05
1.377342E-05
1.290058E-05
1.208027E-05
1.130955E-05
1.058539E-05
9.904950E-06
9.265661E-06
8.664885E-06

//wedge1
4.461017E-03
4.461017E-03
4.461017E-03
4.461017E-03
4.461017E-03
4.461017E-03
4.461017E-03
4.461017E-03
4.461017E-03
4.461017E-03
4.461017E-03
4.461017E-03
4.461017E-03
4.461017E-03
4.461017E-03
4.461017E-03
4.461017E-03
4.461017E-03
4.461017E-03
4.461017E-03
4.461017E-03
4.461017E-03
4.461017E-03
4.461017E-03
4.461017E-03
4.461017E-03
4.461017E-03
4.461017E-03
4.461017E-03
4.461017E-03
4.461017E-03
4.461017E-03
4.461017E-03
4.461017E-03
4.461017E-03
4.461017E-03
4.461017E-03
4.461017E-03
4.461017E-03
4.461017E-03
4.461017E-03
4.461017E-03
4.461017E-03
4.461017E-03
4.461017E-03
4.461017E-03
4.461045E-03
4.461074E-03
4.461110E-03
4.461183E-03
4.461267E-03
4.461367E-03
4.461513E-03
4.461678E-03
4.461869E-03
4.462117E-03
4.462396E-03
4.462716E-03
4.463107E-03
4.463546E-03
4.464044E-03
4.464631E-03
4.465284E-03
4.466015E-03
4.466855E-03
4.467779E-03
4.468801E-03
4.469951E-03
4.471203E-03
4.472571E-03
4.474083E-03
4.475713E-03
4.477477E-03
4.479402E-03
4.481463E-03
4.483675E-03
4.486064E-03
4.488606E-03
4.491314E-03
4.494212E-03
4.497274E-03
4.500509E-03
4.503938E-03
4.507525E-03
4.511281E-03
4.515218E-03
4.519303E-03
4.523544E-03
4.527954E-03
4.532498E-03
4.537185E-03
4.542026E-03
4.546986E-03
4.552070E-03
4.557291E-03
4.562609E-03
4.568033E-03
4.573573E-03
4.579189E-03
4.584891E-03
4.590687E-03
4.596535E-03
4.602445E-03
4.608425E-03
4.614433E-03
4.620478E-03
4.626570E-03
4.632667E-03
4.638780E-03
4.644918E-03
4.651041E-03
4.657163E-03
4.663296E-03
4.669402E-03
4.675498E-03
4.681595E-03
4.687658E-03
4.693705E-03
4.699748E-03
4.705748E-03
4.711722E-03
4.717680E-03
4.723580E-03
4.729439E-03
4.735263E-03
4.741008E-03
4.746693E-03
4.752302E-03
4.757821E-03
4.763265E-03
4.768613E-03
4.773856E-03
4.779012E-03
4.784066E-03
4.789011E-03
4.793868E-03
4.798626E-03
4.803275E-03
4.807840E-03
4.812312E-03
4.816683E-03
4.820982E-03
4.825202E-03
4.829342E-03
4.833430E-03
4.837467E-03
4.841452E-03
4.845419E-03
4.849372E-03
4.853315E-03
4.857287E-03
4.861292E-03
4.865334E-03
4.869452E-03
4.873653E-03
4.877936E-03
4.882337E-03
4.886856E-03
4.891487E-03
4.896258E-03
4.901169E-03
4.906212E-03
4.911417E-03
4.916782E-03
4.922297E-03
4.927984E-03
4.933836E-03
4.939833E-03
4.945995E-03
4.952308E-03
4.958750E-03
4.965334E-03
4.972046E-03
4.978859E-03
4.985789E-03
4.992822E-03
4.999935E-03
5.007143E-03
5.014429E-03
5.021766E-03
5.029164E-03
5.036608E-03
5.044074E-03
5.051580E-03
5.059115E-03
5.066661E-03
5.074236E-03
5.081835E-03
5.089435E-03
5.097057E-03
5.104693E-03
5.112322E-03
5.119968E-03
5.127626E-03
5.135278E-03
5.142951E-03
5.150643E-03
5.158339E-03
5.166070E-03
5.173840E-03
5.181636E-03
5.189488E-03
5.197404E-03
5.205369E-03
5.213424E-03
5.221578E-03
5.229822E-03
5.238194E-03
5.246706E-03
5.255343E-03
5.264140E-03
5.273106E-03
5.282223E-03
5.291525E-03
5.301016E-03
5.310674E-03
5.320530E-03
5.330586E-03
5.340821E-03
5.351263E-03
5.361914E-03
5.372750E-03
5.383793E-03
5.395042E-03
5.406468E-03
5.418096E-03
5.429925E-03
5.441920E-03
5.454097E-03
5.466448E-03
5.478935E-03
5.491575E-03
5.504353E-03
5.517260E-03
5.530278E-03
5.543380E-03
5.556626E-03
5.569934E-03
5.583278E-03
5.596749E-03
5.610253E-03
5.623773E-03
5.637396E-03
5.651024E-03
5.664634E-03
5.678316E-03
5.691975E-03
5.705596E-03
5.719272E-03
5.732910E-03
5.746496E-03
5.760131E-03
5.773724E-03
5.787264E-03
5.800849E-03
5.814388E-03
5.827869E-03
5.841388E-03
5.854849E-03
5.868247E-03
5.881690E-03
5.895090E-03
5.908443E-03
5.921853E-03
5.935224E-03
5.948547E-03
5.961923E-03
5.975250E-03
5.988518E-03
6.001833E-03
6.015099E-03
6.028309E-03
6.041565E-03
6.054763E-03
6.067893E-03
6.081054E-03
6.094141E-03
6.107141E-03
6.120151E-03
6.133059E-03
6.145848E-03
6.158620E-03
6.171265E-03
6.183769E-03
6.196231E-03
6.208533E-03
6.220656E-03
6.232695E-03
6.244533E-03
6.256153E-03
6.267659E-03
6.278936E-03
6.289970E-03
6.300860E-03
6.311493E-03
6.321853E-03
6.332050E-03
6.341970E-03
6.351603E-03
6.361059E-03
6.370226E-03
6.379095E-03
6.387777E-03
6.396162E-03
6.404243E-03
6.412133E-03
6.419722E-03
6.427002E-03
6.434093E-03
6.440891E-03
6.447395E-03
6.453724E-03
6.459771E-03
6.465541E-03
6.471129E-03
6.476466E-03
6.481567E-03
6.486460E-03
6.491147E-03
6.495635E-03
6.499927E-03
6.504032E-03
6.507947E-03
6.511675E-03
6.515229E-03
6.518611E-03
6.521824E-03
6.524876E-03
6.527766E-03
6.530491E-03
6.533060E-03
6.535469E-03
6.537715E-03
6.539806E-03
6.541744E-03
6.543528E-03
6.545168E-03
6.546666E-03
6.548022E-03
6.549250E-03
6.550345E-03
6.551300E-03
6.552126E-03
6.552816E-03
6.553366E-03
6.553787E-03
6.554072E-03
6.554218E-03
6.554235E-03
6.554118E-03
6.553854E-03
6.553451E-03
6.552900E-03
6.552193E-03
6.551337E-03
6.550326E-03
6.549148E-03
6.547812E-03
6.546309E-03
6.544628E-03
6.542779E-03
6.540756E-03
6.538546E-03
6.536159E-03
6.533588E-03
6.530822E-03
6.527873E-03
6.524738E-03
6.521408E-03
6.517896E-03
6.514198E-03
6.510305E-03
6.506231E-03
6.501974E-03
6.497526E-03
6.492903E-03
6.488100E-03
6.483109E-03
6.477943E-03
6.472597E-03
6.467064E-03
6.461359E-03
6.455480E-03
6.449417E-03
6.443191E-03
6.436797E-03
6.430226E-03
6.423492E-03
6.416590E-03
6.409508E-03
6.402263E-03
6.394845E-03
6.387244E-03
6.379473E-03
6.371526E-03
6.363390E-03
6.355076E-03
6.346579E-03
6.337885E-03
6.329010E-03
6.319949E-03
6.310690E-03
6.301249E-03
6.291622E-03
6.281797E-03
6.271790E-03
6.261596E-03
6.251204E-03
6.240630E-03
6.229870E-03
6.218913E-03
6.207776E-03
6.196456E-03
6.184937E-03
6.173239E-03
6.161356E-03
6.149276E-03
6.137017E-03
6.124575E-03
6.111937E-03
6.099123E-03
6.086130E-03
6.072948E-03
6.059595E-03
6.046070E-03
6.032360E-03
6.018488E-03
6.004450E-03
5.990237E-03
5.975871E-03
5.961351E-03
5.946665E-03
5.931836E-03
5.916862E-03
5.901732E-03
5.886468E-03
5.871068E-03
5.855521E-03
5.839849E-03
5.824053E-03
5.808123E-03
5.792080E-03
5.775923E-03
5.759640E-03
5.743250E-03
5.726753E-03
5.710135E-03
5.693419E-03
5.676602E-03
5.659671E-03
5.642645E-03
5.625523E-03
5.608291E-03
5.590971E-03
5.573561E-03
5.556050E-03
5.538457E-03
5.520782E-03
5.503011E-03
5.485162E-03
5.467234E-03
5.449212E-03
5.431116E-03
5.412942E-03
5.394676E-03
5.376338E-03
5.357926E-03
5.339426E-03
5.320859E-03
5.302223E-03
5.283505E-03
5.264726E-03
5.245884E-03
5.226967E-03
5.207994E-03
5.188966E-03
5.169869E-03
5.150724E-03
5.131529E-03
5.112273E-03
5.092976E-03
5.073636E-03
5.054243E-03
5.034814E-03
5.015350E-03
4.995839E-03
4.976301E-03
4.956735E-03
4.937129E-03
4.917502E-03
4.897855E-03
4.878176E-03
4.858486E-03
4.838785E-03
4.819062E-03
4.799336E-03
4.779607E-03
4.759865E-03
4.740129E-03
4.720398E-03
4.700662E-03
4.680937E-03
4.661225E-03
4.641512E-03
4.621816E-03
4.602136E-03
4.582460E-03
4.562805E-03
4.543171E-03
4.523544E-03
4.503942E-03
4.484364E-03
4.464798E-03
4.445260E-03
4.425751E-03
4.406256E-03
4.386793E-03
4.367362E-03
4.347950E-03
4.328572E-03
4.309229E-03
4.289908E-03
4.270623E-03
4.251375E-03
4.232151E-03
4.212966E-03
4.193819E-03
4.174699E-03
4.155620E-03
4.136581E-03
4.117569E-03
4.098599E-03
4.079670E-03
4.060769E-03
4.041911E-03
4.023095E-03
4.004308E-03
3.985564E-03
3.966861E-03
3.948189E-03
3.929560E-03
3.910973E-03
3.892416E-03
3.873903E-03
3.855433E-03
3.836994E-03
3.818599E-03
3.800247E-03
3.781928E-03
3.763653E-03
3.745423E-03
3.727227E-03
3.709076E-03
3.690971E-03
3.672901E-03
3.654878E-03
3.636902E-03
3.618963E-03
3.601073E-03
3.583231E-03
3.565428E-03
3.547674E-03
3.529970E-03
3.512306E-03
3.494693E-03
3.477131E-03
3.459610E-03
3.442142E-03
3.424726E-03
3.407354E-03
3.390035E-03
3.372770E-03
3.355551E-03
3.338386E-03
3.321277E-03
3.304214E-03
3.287207E-03
3.270256E-03
3.253354E-03
3.236509E-03
3.219721E-03
3.202982E-03
3.186302E-03
3.169680E-03
3.153107E-03
3.136595E-03
3.120141E-03
3.103738E-03
3.087395E-03
3.071112E-03
3.054881E-03
3.038710E-03
3.022598E-03
3.006539E-03
2.990539E-03
2.974599E-03
2.958711E-03
2.942882E-03
2.927112E-03
2.911393E-03
2.895733E-03
2.880132E-03
2.864581E-03
2.849089E-03
2.833655E-03
2.818271E-03
2.802944E-03
2.787674E-03
2.772453E-03
2.757288E-03
2.742179E-03
2.727117E-03
2.712111E-03
2.697158E-03
2.682253E-03
2.667402E-03
2.652604E-03
2.637853E-03
2.623154E-03
2.608507E-03
2.593907E-03
2.579358E-03
2.564861E-03
2.550409E-03
2.536009E-03
2.521659E-03
2.507355E-03
2.493101E-03
2.478898E-03
2.464740E-03
2.450632E-03
2.436574E-03
2.422562E-03
2.408600E-03
2.394688E-03
2.380822E-03
2.367006E-03
2.353240E-03
2.339520E-03
2.325851E-03
2.312232E-03
2.298658E-03
2.285135E-03
2.271662E-03
2.258235E-03
2.244858E-03
2.231532E-03
2.218251E-03
2.205020E-03
2.191840E-03
2.178705E-03
2.165620E-03
2.152585E-03
2.139596E-03
2.126656E-03
2.113766E-03
2.100922E-03
2.088126E-03
2.075380E-03
2.062679E-03
2.050027E-03
2.037423E-03
2.024864E-03
2.012354E-03
1.999891E-03
1.987473E-03
1.975102E-03
1.962778E-03
1.950498E-03
1.938264E-03
1.926077E-03
1.913933E-03
1.901835E-03
1.889782E-03
1.877772E-03
1.865807E-03
1.853887E-03
1.842008E-03
1.830174E-03
1.818384E-03
1.806634E-03
1.794928E-03
1.783266E-03
1.771643E-03
1.760063E-03
1.748525E-03
1.737027E-03
1.725570E-03
1.714154E-03
1.702777E-03
1.691440E-03
1.680143E-03
1.668883E-03
1.657662E-03
1.646480E-03
1.635334E-03
1.624226E-03
1.613155E-03
1.602119E-03
1.591119E-03
1.580155E-03
1.569225E-03
1.558329E-03
1.547468E-03
1.536638E-03
1.525842E-03
1.515079E-03
1.504346E-03
1.493645E-03
1.482976E-03
1.472335E-03
1.461724E-03
1.451143E-03
1.440589E-03
1.430064E-03
1.419567E-03
1.409096E-03
1.398651E-03
1.388233E-03
1.377839E-03
1.367470E-03
1.357126E-03
1.346804E-03
1.336506E-03
1.326231E-03
1.315977E-03
1.305744E-03
1.295533E-03
1.285341E-03
1.275169E-03
1.265016E-03
1.254881E-03
1.244764E-03
1.234665E-03
1.224581E-03
1.214514E-03
1.204462E-03
1.194424E-03
1.184400E-03
1.174391E-03
1.164393E-03
1.154407E-03
1.144434E-03
1.134470E-03
1.124517E-03
1.114574E-03
1.104638E-03
1.094711E-03
1.084792E-03
1.074879E-03
1.064972E-03
1.055071E-03
1.045174E-03
1.035281E-03
1.025392E-03
1.015505E-03
1.005621E-03
9.957384E-04
9.858559E-04
9.759741E-04
9.660923E-04
9.562089E-04
9.463244E-04
9.364382E-04
9.265489E-04
9.166568E-04
9.067616E-04
8.968619E-04
8.869581E-04
8.770500E-04
8.671363E-04
8.572174E-04
8.472934E-04
8.373629E-04
8.274266E-04
8.174847E-04
8.075358E-04
7.975810E-04
7.876204E-04
7.776530E-04
7.676799E-04
7.577014E-04
7.477168E-04
7.377273E-04
7.277333E-04
7.177345E-04
7.077323E-04
6.977272E-04
6.877193E-04
6.777099E-04
6.677001E-04
6.576900E-04
6.476814E-04
6.376754E-04
6.276726E-04
6.176748E-04
6.076836E-04
5.976997E-04
5.877252E-04
5.777621E-04
5.678113E-04
5.578752E-04
5.479560E-04
5.380549E-04
5.281746E-04
5.183174E-04
5.084850E-04
4.986802E-04
4.889056E-04
4.791631E-04
4.694556E-04
4.597862E-04
4.501567E-04
4.405705E-04
4.310306E-04
4.215392E-04
4.120997E-04
4.027152E-04
3.933882E-04
3.841220E-04
3.749199E-04
3.657844E-04
3.567190E-04
3.477269E-04
3.388107E-04
3.299737E-04
3.212194E-04
3.125501E-04
3.039691E-04
2.954797E-04
2.870844E-04
2.787862E-04
2.705882E-04
2.624928E-04
2.545029E-04
2.466213E-04
2.388501E-04
2.311921E-04
2.236500E-04
2.162255E-04
2.089210E-04
2.017391E-04
1.946811E-04
1.877493E-04
1.809456E-04
1.742715E-04
1.677285E-04
1.613183E-04
1.550421E-04
1.489011E-04
1.428967E-04
1.370295E-04
1.313004E-04
1.257105E-04
1.202601E-04
1.149497E-04
1.097798E-04
1.047505E-04
9.986172E-05
9.511374E-05
9.061325E-05
8.625901E-05
8.205092E-05
7.798822E-05
7.407018E-05
7.029607E-05
6.666450E-05
6.317406E-05
5.982333E-05
5.661024E-05
5.353272E-05
5.058861E-05
4.777523E-05
4.508982E-05
4.252962E-05
4.009136E-05
3.777175E-05
3.556750E-05
3.347492E-05
3.149031E-05
2.961007E-05
2.783022E-05
2.614687E-05
2.455624E-05
2.305430E-05
2.163712E-05
2.030096E-05
1.904185E-05
1.785602E-05
1.673989E-05
1.568973E-05
1.470200E-05
1.377342E-05
1.290058E-05
1.208027E-05
1.130955E-05
1.058539E-05
9.904950E-06
9.265661E-06
8.664885E-06

//symmytryPlane
4.461017E-03
4.461017E-03
4.461017E-03
4.461017E-03
4.461017E-03
4.461017E-03
4.461017E-03
4.461017E-03
4.461017E-03
4.461017E-03
4.461017E-03
4.461017E-03
4.461017E-03
4.461017E-03
4.461017E-03
4.461017E-03
4.461017E-03
4.461017E-03
4.461017E-03
4.461017E-03
4.461017E-03
4.461017E-03
4.461017E-03
4.461017E-03
4.461017E-03
4.461017E-03
4.461017E-03
4.461017E-03
4.461017E-03
4.461017E-03
4.461017E-03
4.461017E-03
4.461017E-03
4.461017E-03
4.461017E-03
4.461017E-03
4.461017E-03
4.461017E-03
4.461017E-03
4.461017E-03
4.461017E-03
4.461017E-03
4.461017E-03
4.461017E-03
4.461017E-03
4.461017E-03
4.461045E-03
4.461074E-03
4.461110E-03
4.461183E-03
4.461267E-03
4.461367E-03
4.461513E-03
4.461678E-03
4.461869E-03
4.462117E-03
4.462396E-03
4.462716E-03
4.463107E-03
4.463546E-03
4.464044E-03
4.464631E-03
4.465284E-03
4.466015E-03
4.466855E-03
4.467779E-03
4.468801E-03
4.469951E-03
4.471203E-03
4.472571E-03
4.474083E-03
4.475713E-03
4.477477E-03
4.479402E-03
4.481463E-03
4.483675E-03
4.486064E-03
4.488606E-03
4.491314E-03
4.494212E-03
4.497274E-03
4.500509E-03
4.503938E-03
4.507525E-03
4.511281E-03
4.515218E-03
4.519303E-03
4.523544E-03
4.527954E-03
4.532498E-03
4.537185E-03
4.542026E-03
4.546986E-03
4.552070E-03
4.557291E-03
4.562609E-03
4.568033E-03
4.573573E-03
4.579189E-03
4.584891E-03
4.590687E-03
4.596535E-03
4.602445E-03
4.608425E-03
4.614433E-03
4.620478E-03
4.626570E-03
4.632667E-03
4.638780E-03
4.644918E-03
4.651041E-03
4.657163E-03
4.663296E-03
4.669402E-03
4.675498E-03
4.681595E-03
4.687658E-03
4.693705E-03
4.699748E-03
4.705748E-03
4.711722E-03
4.717680E-03
4.723580E-03
4.729439E-03
4.735263E-03
4.741008E-03
4.746693E-03
4.752302E-03
4.757821E-03
4.763265E-03
4.768613E-03
4.773856E-03
4.779012E-03
4.784066E-03
4.789011E-03
4.793868E-03
4.798626E-03
4.803275E-03
4.807840E-03
4.812312E-03
4.816683E-03
4.820982E-03
4.825202E-03
4.829342E-03
4.833430E-03
4.837467E-03
4.841452E-03
4.845419E-03
4.849372E-03
4.853315E-03
4.857287E-03
4.861292E-03
4.865334E-03
4.869452E-03
4.873653E-03
4.877936E-03
4.882337E-03
4.886856E-03
4.891487E-03
4.896258E-03
4.901169E-03
4.906212E-03
4.911417E-03
4.916782E-03
4.922297E-03
4.927984E-03
4.933836E-03
4.939833E-03
4.945995E-03
4.952308E-03
4.958750E-03
4.965334E-03
4.972046E-03
4.978859E-03
4.985789E-03
4.992822E-03
4.999935E-03
5.007143E-03
5.014429E-03
5.021766E-03
5.029164E-03
5.036608E-03
5.044074E-03
5.051580E-03
5.059115E-03
5.066661E-03
5.074236E-03
5.081835E-03
5.089435E-03
5.097057E-03
5.104693E-03
5.112322E-03
5.119968E-03
5.127626E-03
5.135278E-03
5.142951E-03
5.150643E-03
5.158339E-03
5.166070E-03
5.173840E-03
5.181636E-03
5.189488E-03
5.197404E-03
5.205369E-03
5.213424E-03
5.221578E-03
5.229822E-03
5.238194E-03
5.246706E-03
5.255343E-03
5.264140E-03
5.273106E-03
5.282223E-03
5.291525E-03
5.301016E-03
5.310674E-03
5.320530E-03
5.330586E-03
5.340821E-03
5.351263E-03
5.361914E-03
5.372750E-03
5.383793E-03
5.395042E-03
5.406468E-03
5.418096E-03
5.429925E-03
5.441920E-03
5.454097E-03
5.466448E-03
5.478935E-03
5.491575E-03
5.504353E-03
5.517260E-03
5.530278E-03
5.543380E-03
5.556626E-03
5.569934E-03
5.583278E-03
5.596749E-03
5.610253E-03
5.623773E-03
5.637396E-03
5.651024E-03
5.664634E-03
5.678316E-03
5.691975E-03
5.705596E-03
5.719272E-03
5.732910E-03
5.746496E-03
5.760131E-03
5.773724E-03
5.787264E-03
5.800849E-03
5.814388E-03
5.827869E-03
5.841388E-03
5.854849E-03
5.868247E-03
5.881690E-03
5.895090E-03
5.908443E-03
5.921853E-03
5.935224E-03
5.948547E-03
5.961923E-03
5.975250E-03
5.988518E-03
6.001833E-03
6.015099E-03
6.028309E-03
6.041565E-03
6.054763E-03
6.067893E-03
6.081054E-03
6.094141E-03
6.107141E-03
6.120151E-03
6.133059E-03
6.145848E-03
6.158620E-03
6.171265E-03
6.183769E-03
6.196231E-03
6.208533E-03
6.220656E-03
6.232695E-03
6.244533E-03
6.256153E-03
6.267659E-03
6.278936E-03
6.289970E-03
6.300860E-03
6.311493E-03
6.321853E-03
6.332050E-03
6.341970E-03
6.351603E-03
6.361059E-03
6.370226E-03
6.379095E-03
6.387777E-03
6.396162E-03
6.404243E-03
6.412133E-03
6.419722E-03
6.427002E-03
6.434093E-03
6.440891E-03
6.447395E-03
6.453724E-03
6.459771E-03
6.465541E-03
6.471129E-03
6.476466E-03
6.481567E-03
6.486460E-03
6.491147E-03
6.495635E-03
6.499927E-03
6.504032E-03
6.507947E-03
6.511675E-03
6.515229E-03
6.518611E-03
6.521824E-03
6.524876E-03
6.527766E-03
6.530491E-03
6.533060E-03
6.535469E-03
6.537715E-03
6.539806E-03
6.541744E-03
6.543528E-03
6.545168E-03
6.546666E-03
6.548022E-03
6.549250E-03
6.550345E-03
6.551300E-03
6.552126E-03
6.552816E-03
6.553366E-03
6.553787E-03
6.554072E-03
6.554218E-03
6.554235E-03
6.554118E-03
6.553854E-03
6.553451E-03
6.552900E-03
6.552193E-03
6.551337E-03
6.550326E-03
6.549148E-03
6.547812E-03
6.546309E-03
6.544628E-03
6.542779E-03
6.540756E-03
6.538546E-03
6.536159E-03
6.533588E-03
6.530822E-03
6.527873E-03
6.524738E-03
6.521408E-03
6.517896E-03
6.514198E-03
6.510305E-03
6.506231E-03
6.501974E-03
6.497526E-03
6.492903E-03
6.488100E-03
6.483109E-03
6.477943E-03
6.472597E-03
6.467064E-03
6.461359E-03
6.455480E-03
6.449417E-03
6.443191E-03
6.436797E-03
6.430226E-03
6.423492E-03
6.416590E-03
6.409508E-03
6.402263E-03
6.394845E-03
6.387244E-03
6.379473E-03
6.371526E-03
6.363390E-03
6.355076E-03
6.346579E-03
6.337885E-03
6.329010E-03
6.319949E-03
6.310690E-03
6.301249E-03
6.291622E-03
6.281797E-03
6.271790E-03
6.261596E-03
6.251204E-03
6.240630E-03
6.229870E-03
6.218913E-03
6.207776E-03
6.196456E-03
6.184937E-03
6.173239E-03
6.161356E-03
6.149276E-03
6.137017E-03
6.124575E-03
6.111937E-03
6.099123E-03
6.086130E-03
6.072948E-03
6.059595E-03
6.046070E-03
6.032360E-03
6.018488E-03
6.004450E-03
5.990237E-03
5.975871E-03
5.961351E-03
5.946665E-03
5.931836E-03
5.916862E-03
5.901732E-03
5.886468E-03
5.871068E-03
5.855521E-03
5.839849E-03
5.824053E-03