/*--------------------------------*- C++ -*----------------------------------*\
| =========                 |                                                 |
| \\      /  F ield         | OpenFOAM: The Open Source CFD Toolbox           |
|  \\    /   O peration     | Version:  2.4.0                                 |
|   \\  /    A nd           | Web:      www.OpenFOAM.org                      |
|    \\/     M anipulation  |                                                 |
\*---------------------------------------------------------------------------*/
FoamFile
{
    version     2.0;
    format      ascii;
    class       scalarAverageField;
    object      values;
}
// * * * * * * * * * * * * * * * * * * * * * * * * * * * * * * * * * * * * * //
//Data on Points

0

2700
(
//wedge0
0.857399073368494
0.857425760111072
0.857452502697719
0.857479468571231
0.857506769464456
0.857534070301797
0.857561594504240
0.857589509497817
0.857617368664089
0.857645506966885
0.857673980289393
0.857702453611900
0.857731206015048
0.857760293493791
0.857789380916651
0.857818747476035
0.857848504882435
0.857878206405648
0.857908187121267
0.857938558628020
0.857968874419234
0.857999581113348
0.858030566664570
0.858061552215791
0.858092872507309
0.858124583981142
0.858156239571788
0.858188230461561
0.858220556091629
0.858252937604886
0.858285597975251
0.858318649527931
0.858356766328167
0.858457253210240
0.858558917482425
0.858660411874036
0.858763251854346
0.858866931145608
0.858970778635457
0.859075635316831
0.859181667706330
0.859287700095830
0.859394739994868
0.859503125482605
0.859611342771755
0.859720903967618
0.859831472673020
0.859942209577009
0.860053955672523
0.860166877476162
0.860279967478389
0.860394233188742
0.860509676289207
0.860625117707686
0.860741736516277
0.860859700913566
0.860977663628871
0.861096802052300
0.861217286064430
0.861397583075179
0.861601225968070
0.861807399932850
0.862013292354593
0.862221437120620
0.862431831415499
0.862642225710377
0.862854869534109
0.863070044429728
0.863284937782311
0.863502083479177
0.863721757432501
0.863941434201255
0.864163360498861
0.864387536325320
0.864611712151779
0.864838419050125
0.865067659835789
0.865296897806024
0.865528388120540
0.865762409506945
0.865996430893349
0.866285714144644
0.866621787512222
0.866957860879801
0.867297887865465
0.867641076954082
0.867984270000275
0.868331412706978
0.868682117231776
0.869032817798998
0.869387475941882
0.869745691945285
0.870103903991112
0.870466073612601
0.870831801094609
0.871197924334183
0.871567605434277
0.871941635910023
0.872315666385768
0.872693254722033
0.873118209917548
0.873610421680451
0.874107728560351
0.874610640578969
0.875113552597588
0.875621564833420
0.876135177107754
0.876648789382088
0.877168006795140
0.877692319325188
0.878217141876959
0.878747569567448
0.879283092374933
0.879819120103923
0.880360758071848
0.880908511200213
0.881455754306857
0.882073130049666
0.882756288706694
0.883438824589274
0.884129444084173
0.884826907870241
0.885524371656309
0.886229308735737
0.886942329427483
0.887654727344782
0.888375208874399
0.889102540922929
0.889830495745906
0.890566509270223
0.891310039682112
0.892053570094000
0.892866921817701
0.893761442613697
0.894655890082306
0.895559870111245
0.896473382700516
0.897386895289787
0.898310673713261
0.899243984697066
0.900177295680870
0.901120872498878
0.902073981877216
0.903027017928168
0.903991126414581
0.904964694133938
0.906063061779686
0.907192382721515
0.908334244192508
0.909476105663502
0.910630591828285
0.911796776875981
0.912963887734554
0.914142781640665
0.915334216075941
0.916525734675841
0.917730635451160
0.918947319274015
0.920234951528925
0.921620527448507
0.923021271139512
0.924422014830516
0.925836883508660
0.927267962742513
0.928699041976366
0.930144246197358
0.931606514161201
0.933067928937902
0.934545364673169
0.936047064341535
0.937704121120275
0.939380121704678
0.941072855984084
0.942765695506854
0.944477478835289
0.946207048292374
0.947936617749459
0.949684078578560
0.951451535646972
0.953217940281736
0.955091402014247
0.957073042341155
0.959053527462090
0.961055845975923
0.963080113403253
0.965103341145206
0.967149557486032
0.969216567534380
0.971283577582729
0.973373691750547
0.975613143473545
0.977910567842731
0.980232998362411
0.982579304101155
0.984925735498946
0.987297173047231
0.989694873336485
0.992091442694311
0.994514400452154
0.997064434799682
0.999709357101840
1.00238128225328
1.00508305980090
1.00778348042142
1.01051375343813
1.01327374315832
1.01603251164412
1.01882113252611
1.02182753488493
1.02485438256791
1.02791181918321
1.03100275796246
1.03409355108012
1.03721799202333
1.04037433285310
1.04353227596027
1.04689528090289
1.05033897069082
1.05378421596445
1.05726508186057
1.06078343496203
1.06430163251492
1.06785731727315
1.07147925954944
1.07530049083388
1.07916306311803
1.08306532276189
1.08696907068174
1.09091432496529
1.09490075488454
1.09888718480379
1.10312175375012
1.10743854480267
1.11175691343753
1.11611927909006
1.12053054979410
1.12494006762892
1.12939866580217
1.13414408582564
1.13891174464654
1.14372929455212
1.14859877569825
1.15346825684439
1.15839152391825
1.16345742109359
1.16871366205119
1.17402496577754
1.17939466347217
1.18476259759059
1.19018931758312
1.19568168620728
1.20147018847158
1.20731844915390
1.21323081056146
1.21914296519248
1.22511735955992
1.23115564787606
1.23752339983644
1.24395683487763
1.25046220789535
1.25696518298052
1.26353791610355
1.27025969183601
1.27725879865349
1.28433370558418
1.29148418293078
1.29863718694782
1.30586346440763
1.31342642850963
1.32112562434133
1.32890445033425
1.33676823130161
1.34463177023201
1.35268216846295
1.36108963319004
1.36949454625707
1.37784561929686
1.38613825932131
1.39445346084913
1.40313586809941
1.41174827547728
1.42036095208543
1.42890632112396
1.43738438259287
1.44616188395654
1.45504629720501
1.46385676847381
1.47266752413485
1.48141002566082
1.49011610279163
1.49928873066811
1.50838946001510
1.51741768917128
1.52644591832746
1.53540224895416
1.54446177961783
1.55387529153150
1.56321548948945
1.57248237349170
1.58174606993064
1.59093995873350
1.60028561072757
1.60996509170493
1.61956978453783
1.62909732037101
1.63862451779630
1.64807726548503
1.65762858144425
1.66760710731024
1.67750317792334
1.68732363454908
1.69714049050875
1.70688209254766
1.71654411986653
1.72683406382121
1.73705963684137
1.74720455745461
1.75734947806785
1.76740990568337
1.77739352148277
1.78768157748510
1.79827378901816
1.80878343503047
1.81928938407917
1.82971317838084
1.84005481793550
1.85039645749016
1.86115319817058
1.87207129638687
1.88298983527550
1.89382420574473
1.90456647569219
1.91531315236319
1.92597610128712
1.93706598742712
1.94844797064326
1.95973983522744
1.97094205548825
1.98214380144047
1.99325590306933
2.00427788606623
2.01560332835706
2.02741731763878
2.03913908217980
2.05085572312413
2.06248577528414
2.07401796674709
2.08555579416642
2.09699576088869
2.10906133150496
2.12137396481672
2.13358658125063
2.14569973645602
2.15781789250531
2.16983603167675
2.18176026611289
2.19368394489970
2.20638683846056
2.21916862312505
2.23195040778955
2.24462930877067
2.25721137804978
2.26978739534752
2.28226718614139
2.29464348805375
2.30768281825974
2.32112057700403
2.33445303246392
2.34778548792382
2.36101197781451
2.37413250213600
2.38725302645750
2.40027420805786
2.41318346352576
2.42728308730219
2.44137415334842
2.45535594114488
2.46933700041968
2.48320222474973
2.49696545604667
2.51072140212695
2.52436806995747
2.53791347327655
2.55268268346737
2.56754649559436
2.58229021727526
2.59703313298000
2.61165595823865
2.62616594683654
2.64067593543442
2.65506502761006
2.66934934288642
2.68416940260243
2.69993800021599
2.71558187040291
2.73123381646638
2.74675206190704
2.76215275847800
2.77754537917242
2.79282134831674
2.80797169271481
2.82313101030904
2.83872527281290
2.85544006557179
2.87216491899805
2.88874892308121
2.90521320522273
2.92166642063015
2.93798985342858
2.95418149148453
2.97038419627458
2.98644605172154
3.00238717916012
3.01980010599923
3.03766742875810
3.05538581926440
3.07311557864495
3.09069754266034
3.10814308018483
3.12558975459675
3.14289886563033
3.16006131818619
3.17723513961630
3.19426002879383
3.21230128214524
3.23156884960085
3.25066792628764
3.26962443386237
3.28858094143709
3.30739487989973
3.32605458450477
3.34470003219859
3.36321587160872
3.38157747716123
3.39993778663091
3.41815682307135
3.43769445243058
3.45850589016642
3.47913974572167
3.49962437255373
3.52009407651347
3.54041455175002
3.56055595251874
3.58071227615979
3.60070444820532
3.62053396094258
3.64036198139261
3.66004226540669
3.67955690553802
3.70158708088085
3.72413514486520
3.74651119233306
3.76886986439522
3.79105478240032
3.81306594634836
3.83507537275583
3.85691452018738
3.87857817602131
3.90024183185524
3.92173173363211
3.94304788135192
3.96436576661230
3.98591476175984
4.01064560124072
4.03539488280921
4.05994130141403
4.08430125002193
4.10864275654221
4.13279984218644
4.15677250695459
4.18074312260190
4.20451087528553
4.22809420709309
4.25167753890066
4.27507849895299
4.29829298900842
4.32150747906384
4.34609081137602
4.37344089634522
4.40078852839201
4.42791539742111
4.45482395635494
4.48173251528878
4.50844238750669
4.53490942040514
4.56140098252778
4.58769385793450
4.61374389402176
4.63981845933322
4.66567226162698
4.69132983012724
4.71698739862750
4.74242420411007
4.76946931534989
4.80023889546909
4.83076925630651
4.86106039786214
4.89135452965880
4.92140645193266
4.95122214516575
4.98103484815782
5.01058141969892
5.03994558653765
5.06928284120718
5.09838087659493
5.12723969270090
5.15612542097606
5.18477492021047
5.21318520016309
5.24159548011572
5.26979644319679
5.30164489393628
5.33441183586845
5.36693349003084
5.39917831942446
5.43141964470709
5.46341568221994
5.49516993607400
5.52688564470709
5.55839110668037
5.59120204347274
5.62641266800932
5.66139016193793
5.69605154656759
5.73070897983101
5.76509376882410
5.79924147584297
5.83334966919947
5.86717731555315
5.90077183129887
5.93655627748974
5.97438530162909
6.01190028026443
6.04941525889977
6.08666105567454
6.12359280694531
6.16048418093700
6.19714675034719
6.23345041060994
6.26979893451613
6.30606644827290
6.34698411902194
6.38795832008728
6.42861903485323
6.46892515036250
6.50927751794872
6.54927528627827
6.58890817711182
6.62859759826164
6.66797867223175
6.70704625990247
6.74606759549623
6.79066751999216
6.83510000339157
6.87959194414868
6.92366768340197
6.96744613586683
7.01122458833169
7.05464629665042
7.09771126082304
7.14077622499565
7.18348444502215
7.22583592090252
7.26961262154242
7.31883043795304
7.36762384288485
7.41641724781667
7.46486973205239
7.51289780480932
7.56093283513147
7.60854345397483
7.65588272777435
7.70314546835639
7.74999771259007
7.79656469664949
7.84306906262186
7.89465045898330
7.94895865501661
8.00327510081385
8.05709656077455
8.11055503112178
8.16398875217718
8.21698523574364
8.26957748087691
8.32216147624624
8.37433298341844
8.42608375262958
8.47784277160466
8.52918105261868
8.58193616371860
8.64329637166962
8.70414979895578
8.76452625620444
8.82490271345308
8.88480220066421
8.94422471783783
9.00364723501145
9.06259278214756
9.12107129612194
9.17954981009631
9.23757122778473
9.29511567543564
9.35267999683811
9.40976734820307
9.47520766104227
9.54477386676845
9.61379086560730
9.68225865755883
9.75071424491289
9.81864503457460
9.88602661734902
9.95339599552593
10.0202405760105
10.0865603588028
10.1528679369976
10.2186629220975
10.2839209049077
10.3491666831203
10.4139120728356
10.4781448694561
10.5534744599038
10.6285409760346
10.7030036243858
10.7774806505412
10.8513538089171
10.9246374773176
10.9979211457180
11.0706153241431
11.1483825764662
11.2299869261089
11.3109406530716
11.3912274917873
11.4715305960700
11.5511993432396
11.6302174677292
11.7092518577858
11.7876518907294
11.8744078414571
11.9630346771886
12.0509203309360
12.1381203913483
12.2253019222110
12.3118163892882
12.3976267334806
12.4834556072226
12.5685988876294
12.6610298141834
12.7580996760518
12.8544028606434
12.9499180713673
13.0454545786822
13.1402244087204
13.2342488580728
13.3282520108343
13.4215310795011
13.5140647674822
13.6209249611823
13.7275199969562
13.8332496125835
13.9389545019210
14.0438434236915
14.1478916516054
14.2519646058092
14.3551721398664
14.4575637063567
14.5599799991370
14.6752353054951
14.7936346525596
14.9120339996242
15.0294747651251
15.1459859969887
15.2625262767784
15.3781079750045
15.4927601395933
15.6074413521082
15.7212220789118
15.8340732720781
15.9682075124814
16.1015848423116
16.2338550192093
16.3661597946362
16.4973920156598
16.6275862808092
16.7577459474295
16.8869368552338
17.0150552086349
17.1432081605652
17.2702885580921
17.4111005222649
17.5637674492643
17.7152613043769
17.8655820876025
18.0158190799790
18.1649248958932
18.3127738490713
18.4607065930985
18.6074243698142
18.7529271792185
18.8985137794719
19.0429273078383
19.1988381518938
19.3758758946450
19.5515669488908
19.7258595189194
19.9001520889481
20.0730461747595
20.2445935720655
20.4160891736598
20.5862898824605
20.7550921070439
20.9238943316274
21.0913498677054
21.2575105109898
21.4343759134187
21.6295063939310
21.8231037939867
22.0167011940423
22.2087041904232
22.3992354295657
22.5897053454899
22.7911552475872
23.0040835378619
23.2169421982183
23.4281297405345
23.6376461648107
23.8470929591685
24.0549382654045
24.2717956201281
24.5077252696269
24.7416636155345
24.9737699621381
25.2058763087416
25.4362303081849
25.6646726561804
25.8931150041760
26.1531504456519
26.4127699608201
26.6722975101663
26.9298018114311
27.1853748304365
27.4407639177981
27.6943136887220
27.9555921034150
28.2489990668523
28.5401523557349
28.8288373343913
29.1176296308834
29.4040609349852
29.6883458823682
29.9724161940795
30.2645015109781
30.5948021427060
30.9253563641704
31.2531210985337
31.5783499355326
31.9034519776633
32.2261449172976
32.5460483698311
32.8662054121010
33.2338071689140
33.6113998800563
33.9889925911988
34.3636971133270
34.7352094265444
35.1068737497101
35.4756498838613
35.8412338091018
36.2071217542387
36.6496358198219
37.0885947177896
37.5277390652284
37.9635453221883
38.3956425897271
38.8277398572662
39.2564990343263
39.6817346714365
40.1071557580179
40.6095779882703
41.1317284244711
41.6536475135580
42.1716337017075
42.6856869889199
43.1995089290183
43.7093979681792
44.2151227592892
44.7210788975131
45.2290740941536
45.8224213360802
46.4160444251670
47.0047022653675
47.5889465510022
48.1742996071012
48.8360319381578
49.4924099381206
50.1484729774307
50.7998116069526
51.4454809447280
52.1721683625092
52.9099132715665
53.6414952010392
54.3730771305123
55.0992211368228
55.8769696589830
56.7139466534152
57.5446020693393
58.3685144681886
59.1924268670380
60.0103817249443
60.9638008563479
61.9172199877509
62.8627104777283
63.8017589465482
64.7398163351894
65.7327668663887
66.8327990398295
67.9334216760584
69.0251873704715
70.1080961230701
71.1904144128808
72.3815345894767
73.6722106902560
74.9614574708802
76.2414136704903
77.5113646290089
78.7806009274498
80.1860356047513
81.7274462169449
83.2679755194693
84.7961664866184
86.3129004280624
87.8287530598362
89.3698588883055
90.9901671010593
92.6104753138142
94.2183417033160
95.8128092062394
97.4072767091627
98.9893023888341
101.532402925723
104.242554974722
106.931224111136
109.499696779509
111.988429062361
114.457115793987
116.983719489235
119.825352354862
122.645511924276
125.442408756125
128.613464810690
131.868175556791
135.095606328879
138.501877105418
142.302412959168
146.073062554567
149.843712149962
154.151232406829
158.616907314032
163.082582221233
167.638465936156
173.015595429472
178.389059531179
183.722204325166
189.581885213806
196.174086628065
202.716035640682
209.207732251671
216.118145088344
223.176408726056
230.179568815144
237.182728904231
248.432806222715
260.422485688192
271.752112942839
282.907927586491
295.647937321455
308.543696683001
323.447728234603
338.377613891607
355.905564954343
373.541416947799
394.220602501849
415.303068938385
440.102007227182
465.490868808463
495.561818789905
526.944615523394
559.983766674091
594.066441766875
640.848288997788
697.496773251662
755.566440066806
822.275106399397
899.690442204869
991.194804120289
1099.98334532298
1235.22454521157
1404.81464914623
1596.19289977735
1890.89380041557
2266.16530225660

//wedge1
0.857399073368494
0.857425760111072
0.857452502697719
0.857479468571231
0.857506769464456
0.857534070301797
0.857561594504240
0.857589509497817
0.857617368664089
0.857645506966885
0.857673980289393
0.857702453611900
0.857731206015048
0.857760293493791
0.857789380916651
0.857818747476035
0.857848504882435
0.857878206405648
0.857908187121267
0.857938558628020
0.857968874419234
0.857999581113348
0.858030566664570
0.858061552215791
0.858092872507309
0.858124583981142
0.858156239571788
0.858188230461561
0.858220556091629
0.858252937604886
0.858285597975251
0.858318649527931
0.858356766328167
0.858457253210240
0.858558917482425
0.858660411874036
0.858763251854346
0.858866931145608
0.858970778635457
0.859075635316831
0.859181667706330
0.859287700095830
0.859394739994868
0.859503125482605
0.859611342771755
0.859720903967618
0.859831472673020
0.859942209577009
0.860053955672523
0.860166877476162
0.860279967478389
0.860394233188742
0.860509676289207
0.860625117707686
0.860741736516277
0.860859700913566
0.860977663628871
0.861096802052300
0.861217286064430
0.861397583075179
0.861601225968070
0.861807399932850
0.862013292354593
0.862221437120620
0.862431831415499
0.862642225710377
0.862854869534109
0.863070044429728
0.863284937782311
0.863502083479177
0.863721757432501
0.863941434201255
0.864163360498861
0.864387536325320
0.864611712151779
0.864838419050125
0.865067659835789
0.865296897806024
0.865528388120540
0.865762409506945
0.865996430893349
0.866285714144644
0.866621787512222
0.866957860879801
0.867297887865465
0.867641076954082
0.867984270000275
0.868331412706978
0.868682117231776
0.869032817798998
0.869387475941882
0.869745691945285
0.870103903991112
0.870466073612601
0.870831801094609
0.871197924334183
0.871567605434277
0.871941635910023
0.872315666385768
0.872693254722033
0.873118209917548
0.873610421680451
0.874107728560351
0.874610640578969
0.875113552597588
0.875621564833420
0.876135177107754
0.876648789382088
0.877168006795140
0.877692319325188
0.878217141876959
0.878747569567448
0.879283092374933
0.879819120103923
0.880360758071848
0.880908511200213
0.881455754306857
0.882073130049666
0.882756288706694
0.883438824589274
0.884129444084173
0.884826907870241
0.885524371656309
0.886229308735737
0.886942329427483
0.887654727344782
0.888375208874399
0.889102540922929
0.889830495745906
0.890566509270223
0.891310039682112
0.892053570094000
0.892866921817701
0.893761442613697
0.894655890082306
0.895559870111245
0.896473382700516
0.897386895289787
0.898310673713261
0.899243984697066
0.900177295680870
0.901120872498878
0.902073981877216
0.903027017928168
0.903991126414581
0.904964694133938
0.906063061779686
0.907192382721515
0.908334244192508
0.909476105663502
0.910630591828285
0.911796776875981
0.912963887734554
0.914142781640665
0.915334216075941
0.916525734675841
0.917730635451160
0.918947319274015
0.920234951528925
0.921620527448507
0.923021271139512
0.924422014830516
0.925836883508660
0.927267962742513
0.928699041976366
0.930144246197358
0.931606514161201
0.933067928937902
0.934545364673169
0.936047064341535
0.937704121120275
0.939380121704678
0.941072855984084
0.942765695506854
0.944477478835289
0.946207048292374
0.947936617749459
0.949684078578560
0.951451535646972
0.953217940281736
0.955091402014247
0.957073042341155
0.959053527462090
0.961055845975923
0.963080113403253
0.965103341145206
0.967149557486032
0.969216567534380
0.971283577582729
0.973373691750547
0.975613143473545
0.977910567842731
0.980232998362411
0.982579304101155
0.984925735498946
0.987297173047231
0.989694873336485
0.992091442694311
0.994514400452154
0.997064434799682
0.999709357101840
1.00238128225328
1.00508305980090
1.00778348042142
1.01051375343813
1.01327374315832
1.01603251164412
1.01882113252611
1.02182753488493
1.02485438256791
1.02791181918321
1.03100275796246
1.03409355108012
1.03721799202333
1.04037433285310
1.04353227596027
1.04689528090289
1.05033897069082
1.05378421596445
1.05726508186057
1.06078343496203
1.06430163251492
1.06785731727315
1.07147925954944
1.07530049083388
1.07916306311803
1.08306532276189
1.08696907068174
1.09091432496529
1.09490075488454
1.09888718480379
1.10312175375012
1.10743854480267
1.11175691343753
1.11611927909006
1.12053054979410
1.12494006762892
1.12939866580217
1.13414408582564
1.13891174464654
1.14372929455212
1.14859877569825
1.15346825684439
1.15839152391825
1.16345742109359
1.16871366205119
1.17402496577754
1.17939466347217
1.18476259759059
1.19018931758312
1.19568168620728
1.20147018847158
1.20731844915390
1.21323081056146
1.21914296519248
1.22511735955992
1.23115564787606
1.23752339983644
1.24395683487763
1.25046220789535
1.25696518298052
1.26353791610355
1.27025969183601
1.27725879865349
1.28433370558418
1.29148418293078
1.29863718694782
1.30586346440763
1.31342642850963
1.32112562434133
1.32890445033425
1.33676823130161
1.34463177023201
1.35268216846295
1.36108963319004
1.36949454625707
1.37784561929686
1.38613825932131
1.39445346084913
1.40313586809941
1.41174827547728
1.42036095208543
1.42890632112396
1.43738438259287
1.44616188395654
1.45504629720501
1.46385676847381
1.47266752413485
1.48141002566082
1.49011610279163
1.49928873066811
1.50838946001510
1.51741768917128
1.52644591832746
1.53540224895416
1.54446177961783
1.55387529153150
1.56321548948945
1.57248237349170
1.58174606993064
1.59093995873350
1.60028561072757
1.60996509170493
1.61956978453783
1.62909732037101
1.63862451779630
1.64807726548503
1.65762858144425
1.66760710731024
1.67750317792334
1.68732363454908
1.69714049050875
1.70688209254766
1.71654411986653
1.72683406382121
1.73705963684137
1.74720455745461
1.75734947806785
1.76740990568337
1.77739352148277
1.78768157748510
1.79827378901816
1.80878343503047
1.81928938407917
1.82971317838084
1.84005481793550
1.85039645749016
1.86115319817058
1.87207129638687
1.88298983527550
1.89382420574473
1.90456647569219
1.91531315236319
1.92597610128712
1.93706598742712
1.94844797064326
1.95973983522744
1.97094205548825
1.98214380144047
1.99325590306933
2.00427788606623
2.01560332835706
2.02741731763878
2.03913908217980
2.05085572312413
2.06248577528414
2.07401796674709
2.08555579416642
2.09699576088869
2.10906133150496
2.12137396481672
2.13358658125063
2.14569973645602
2.15781789250531
2.16983603167675
2.18176026611289
2.19368394489970
2.20638683846056
2.21916862312505
2.23195040778955
2.24462930877067
2.25721137804978
2.26978739534752
2.28226718614139
2.29464348805375
2.30768281825974
2.32112057700403
2.33445303246392
2.34778548792382
2.36101197781451
2.37413250213600
2.38725302645750
2.40027420805786
2.41318346352576
2.42728308730219
2.44137415334842
2.45535594114488
2.46933700041968
2.48320222474973
2.49696545604667
2.51072140212695
2.52436806995747
2.53791347327655
2.55268268346737
2.56754649559436
2.58229021727526
2.59703313298000
2.61165595823865
2.62616594683654
2.64067593543442
2.65506502761006
2.66934934288642
2.68416940260243
2.69993800021599
2.71558187040291
2.73123381646638
2.74675206190704
2.76215275847800
2.77754537917242
2.79282134831674
2.80797169271481
2.82313101030904
2.83872527281290
2.85544006557179
2.87216491899805
2.88874892308121
2.90521320522273
2.92166642063015
2.93798985342858
2.95418149148453
2.97038419627458
2.98644605172154
3.00238717916012
3.01980010599923
3.03766742875810
3.05538581926440
3.07311557864495
3.09069754266034
3.10814308018483
3.12558975459675
3.14289886563033
3.16006131818619
3.17723513961630
3.19426002879383
3.21230128214524
3.23156884960085
3.25066792628764
3.26962443386237
3.28858094143709
3.30739487989973
3.32605458450477
3.34470003219859
3.36321587160872
3.38157747716123
3.39993778663091
3.41815682307135
3.43769445243058
3.45850589016642
3.47913974572167
3.49962437255373
3.52009407651347
3.54041455175002
3.56055595251874
3.58071227615979
3.60070444820532
3.62053396094258
3.64036198139261
3.66004226540669
3.67955690553802
3.70158708088085
3.72413514486520
3.74651119233306
3.76886986439522
3.79105478240032
3.81306594634836
3.83507537275583
3.85691452018738
3.87857817602131
3.90024183185524
3.92173173363211
3.94304788135192
3.96436576661230
3.98591476175984
4.01064560124072
4.03539488280921
4.05994130141403
4.08430125002193
4.10864275654221
4.13279984218644
4.15677250695459
4.18074312260190
4.20451087528553
4.22809420709309
4.25167753890066
4.27507849895299
4.29829298900842
4.32150747906384
4.34609081137602
4.37344089634522
4.40078852839201
4.42791539742111
4.45482395635494
4.48173251528878
4.50844238750669
4.53490942040514
4.56140098252778
4.58769385793450
4.61374389402176
4.63981845933322
4.66567226162698
4.69132983012724
4.71698739862750
4.74242420411007
4.76946931534989
4.80023889546909
4.83076925630651
4.86106039786214
4.89135452965880
4.92140645193266
4.95122214516575
4.98103484815782
5.01058141969892
5.03994558653765
5.06928284120718
5.09838087659493
5.12723969270090
5.15612542097606
5.18477492021047
5.21318520016309
5.24159548011572
5.26979644319679
5.30164489393628
5.33441183586845
5.36693349003084
5.39917831942446
5.43141964470709
5.46341568221994
5.49516993607400
5.52688564470709
5.55839110668037
5.59120204347274
5.62641266800932
5.66139016193793
5.69605154656759
5.73070897983101
5.76509376882410
5.79924147584297
5.83334966919947
5.86717731555315
5.90077183129887
5.93655627748974
5.97438530162909
6.01190028026443
6.04941525889977
6.08666105567454
6.12359280694531
6.16048418093700
6.19714675034719
6.23345041060994
6.26979893451613
6.30606644827290
6.34698411902194
6.38795832008728
6.42861903485323
6.46892515036250
6.50927751794872
6.54927528627827
6.58890817711182
6.62859759826164
6.66797867223175
6.70704625990247
6.74606759549623
6.79066751999216
6.83510000339157
6.87959194414868
6.92366768340197
6.96744613586683
7.01122458833169
7.05464629665042
7.09771126082304
7.14077622499565
7.18348444502215
7.22583592090252
7.26961262154242
7.31883043795304
7.36762384288485
7.41641724781667
7.46486973205239
7.51289780480932
7.56093283513147
7.60854345397483
7.65588272777435
7.70314546835639
7.74999771259007
7.79656469664949
7.84306906262186
7.89465045898330
7.94895865501661
8.00327510081385
8.05709656077455
8.11055503112178
8.16398875217718
8.21698523574364
8.26957748087691
8.32216147624624
8.37433298341844
8.42608375262958
8.47784277160466
8.52918105261868
8.58193616371860
8.64329637166962
8.70414979895578
8.76452625620444
8.82490271345308
8.88480220066421
8.94422471783783
9.00364723501145
9.06259278214756
9.12107129612194
9.17954981009631
9.23757122778473
9.29511567543564
9.35267999683811
9.40976734820307
9.47520766104227
9.54477386676845
9.61379086560730
9.68225865755883
9.75071424491289
9.81864503457460
9.88602661734902
9.95339599552593
10.0202405760105
10.0865603588028
10.1528679369976
10.2186629220975
10.2839209049077
10.3491666831203
10.4139120728356
10.4781448694561
10.5534744599038
10.6285409760346
10.7030036243858
10.7774806505412
10.8513538089171
10.9246374773176
10.9979211457180
11.0706153241431
11.1483825764662
11.2299869261089
11.3109406530716
11.3912274917873
11.4715305960700
11.5511993432396
11.6302174677292
11.7092518577858
11.7876518907294
11.8744078414571
11.9630346771886
12.0509203309360
12.1381203913483
12.2253019222110
12.3118163892882
12.3976267334806
12.4834556072226
12.5685988876294
12.6610298141834
12.7580996760518
12.8544028606434
12.9499180713673
13.0454545786822
13.1402244087204
13.2342488580728
13.3282520108343
13.4215310795011
13.5140647674822
13.6209249611823
13.7275199969562
13.8332496125835
13.9389545019210
14.0438434236915
14.1478916516054
14.2519646058092
14.3551721398664
14.4575637063567
14.5599799991370
14.6752353054951
14.7936346525596
14.9120339996242
15.0294747651251
15.1459859969887
15.2625262767784
15.3781079750045
15.4927601395933
15.6074413521082
15.7212220789118
15.8340732720781
15.9682075124814
16.1015848423116
16.2338550192093
16.3661597946362
16.4973920156598
16.6275862808092
16.7577459474295
16.8869368552338
17.0150552086349
17.1432081605652
17.2702885580921
17.4111005222649
17.5637674492643
17.7152613043769
17.8655820876025
18.0158190799790
18.1649248958932
18.3127738490713
18.4607065930985
18.6074243698142
18.7529271792185
18.8985137794719
19.0429273078383
19.1988381518938
19.3758758946450
19.5515669488908
19.7258595189194
19.9001520889481
20.0730461747595
20.2445935720655
20.4160891736598
20.5862898824605
20.7550921070439
20.9238943316274
21.0913498677054
21.2575105109898
21.4343759134187
21.6295063939310
21.8231037939867
22.0167011940423
22.2087041904232
22.3992354295657
22.5897053454899
22.7911552475872
23.0040835378619
23.2169421982183
23.4281297405345
23.6376461648107
23.8470929591685
24.0549382654045
24.2717956201281
24.5077252696269
24.7416636155345
24.9737699621381
25.2058763087416
25.4362303081849
25.6646726561804
25.8931150041760
26.1531504456519
26.4127699608201
26.6722975101663
26.9298018114311
27.1853748304365
27.4407639177981
27.6943136887220
27.9555921034150
28.2489990668523
28.5401523557349
28.8288373343913
29.1176296308834
29.4040609349852
29.6883458823682
29.9724161940795
30.2645015109781
30.5948021427060
30.9253563641704
31.2531210985337
31.5783499355326
31.9034519776633
32.2261449172976
32.5460483698311
32.8662054121010
33.2338071689140
33.6113998800563
33.9889925911988
34.3636971133270
34.7352094265444
35.1068737497101
35.4756498838613
35.8412338091018
36.2071217542387
36.6496358198219
37.0885947177896
37.5277390652284
37.9635453221883
38.3956425897271
38.8277398572662
39.2564990343263
39.6817346714365
40.1071557580179
40.6095779882703
41.1317284244711
41.6536475135580
42.1716337017075
42.6856869889199
43.1995089290183
43.7093979681792
44.2151227592892
44.7210788975131
45.2290740941536
45.8224213360802
46.4160444251670
47.0047022653675
47.5889465510022
48.1742996071012
48.8360319381578