/*--------------------------------*- C++ -*----------------------------------*\
  =========                 |
  \\      /  F ield         | OpenFOAM: The Open Source CFD Toolbox
   \\    /   O peration     | Website:  https://openfoam.org
    \\  /    A nd           | Version:  6
     \\/     M anipulation  |
\*---------------------------------------------------------------------------*/
FoamFile
{
    version     2.0;
    format      binary;
    class       polyBoundaryMesh;
    location    "constant/polyMesh";
    object      boundary;
}
// * * * * * * * * * * * * * * * * * * * * * * * * * * * * * * * * * * * * * //

7
(
    inlet
    {
        type            patch;
        nFaces          64;
        startFace       30289;
    }
    outlet
    {
        type            patch;
        nFaces          64;
        startFace       30353;
    }
    wedge0
    {
        type            wedge;
        inGroups        1(wedge);
        nFaces          15296;
        startFace       30417;
    }
    wedge1
    {
        type            wedge;
        inGroups        1(wedge);
        nFaces          15296;
        startFace       45713;
    }
    pipe
    {
        type            wall;
        inGroups        1(wall);
        nFaces          239;
        startFace       61009;
    }
    BoR
    {
        type            wall;
        inGroups        1(wall);
        nFaces          126;
        startFace       61248;
    }
    defaultFaces
    {
        type            empty;
        inGroups        1(empty);
        nFaces          0;
        startFace       61374;
    }
)

// ************************************************************************* //
